Molecule_16
     RDKit          3D

 31 33  0  0  0  0  0  0  0  0999 V2000
   -4.1689    1.7873    0.5797 C   0  0  0  0  0  0  0  0  0  0  0  0
   -3.4267    0.5729    0.1076 C   0  0  0  0  0  0  0  0  0  0  0  0
   -4.1139   -0.5421   -0.3658 C   0  0  0  0  0  0  0  0  0  0  0  0
   -3.4086   -1.6614   -0.8186 C   0  0  0  0  0  0  0  0  0  0  0  0
   -2.0207   -1.7026   -0.8312 C   0  0  0  0  0  0  0  0  0  0  0  0
   -1.4199   -2.8117   -1.2704 N   0  0  0  0  0  0  0  0  0  0  0  0
   -0.0835   -2.8131   -1.2619 C   0  0  0  0  0  0  0  0  0  0  0  0
    0.7053   -1.8093   -0.8699 N   0  0  0  0  0  0  0  0  0  0  0  0
    0.0941   -0.6891   -0.4434 C   0  0  0  0  0  0  0  0  0  0  0  0
    0.8847    0.4290   -0.0548 N   0  0  0  0  0  0  0  0  0  0  0  0
    2.2720    0.4710    0.2097 C   0  0  0  0  0  0  0  0  0  0  0  0
    2.9754   -0.6270    0.7269 C   0  0  0  0  0  0  0  0  0  0  0  0
    4.3344   -0.5324    1.0413 C   0  0  0  0  0  0  0  0  0  0  0  0
    4.9980    0.6744    0.8645 C   0  0  0  0  0  0  0  0  0  0  0  0
    6.3008    0.7479    1.1740 F   0  0  0  0  0  0  0  0  0  0  0  0
    4.3138    1.7875    0.3878 C   0  0  0  0  0  0  0  0  0  0  0  0
    5.1212    3.2957    0.1872 Cl  0  0  0  0  0  0  0  0  0  0  0  0
    2.9552    1.6907    0.0738 C   0  0  0  0  0  0  0  0  0  0  0  0
   -1.3113   -0.5793   -0.3862 C   0  0  0  0  0  0  0  0  0  0  0  0
   -2.0282    0.5538    0.0853 C   0  0  0  0  0  0  0  0  0  0  0  0
   -5.1455    1.5135    0.9925 H   0  0  0  0  0  0  0  0  0  0  0  0
   -3.6137    2.2998    1.3724 H   0  0  0  0  0  0  0  0  0  0  0  0
   -4.3193    2.4810   -0.2532 H   0  0  0  0  0  0  0  0  0  0  0  0
   -5.2016   -0.5586   -0.3806 H   0  0  0  0  0  0  0  0  0  0  0  0
   -3.9622   -2.5290   -1.1722 H   0  0  0  0  0  0  0  0  0  0  0  0
    0.4078   -3.7153   -1.6098 H   0  0  0  0  0  0  0  0  0  0  0  0
    0.5756    1.2372   -0.5859 H   0  0  0  0  0  0  0  0  0  0  0  0
    2.4689   -1.5740    0.8985 H   0  0  0  0  0  0  0  0  0  0  0  0
    4.8716   -1.3920    1.4294 H   0  0  0  0  0  0  0  0  0  0  0  0
    2.4317    2.5735   -0.2833 H   0  0  0  0  0  0  0  0  0  0  0  0
   -1.4866    1.4216    0.4565 H   0  0  0  0  0  0  0  0  0  0  0  0
  1  2  1  0
  2  3  2  0
  3  4  1  0
  4  5  2  0
  5  6  1  0
  6  7  2  0
  7  8  1  0
  8  9  2  0
  9 10  1  0
 10 11  1  0
 11 12  2  0
 12 13  1  0
 13 14  2  0
 14 15  1  0
 14 16  1  0
 16 17  1  0
 16 18  2  0
  9 19  1  0
 19 20  2  0
 20  2  1  0
 19  5  1  0
 18 11  1  0
  1 21  1  0
  1 22  1  0
  1 23  1  0
  3 24  1  0
  4 25  1  0
  7 26  1  0
 10 27  1  0
 12 28  1  0
 13 29  1  0
 18 30  1  0
 20 31  1  0
M  END
>  <Source>  (1) 
BindingForge_Novel

>  <SMILES>  (1) 
Cc1ccc2ncnc(Nc3ccc(F)c(Cl)c3)c2c1

$$$$
