Molecule_17
     RDKit          3D

 32 34  0  0  0  0  0  0  0  0999 V2000
   -4.4874    1.8912    0.2512 C   0  0  0  0  0  0  0  0  0  0  0  0
   -3.1541    1.9508   -0.1419 C   0  0  0  0  0  0  0  0  0  0  0  0
   -2.3122    0.8494    0.0518 C   0  0  0  0  0  0  0  0  0  0  0  0
   -2.7847   -0.3321    0.6320 C   0  0  0  0  0  0  0  0  0  0  0  0
   -1.9889   -1.4565    0.8744 N   0  0  0  0  0  0  0  0  0  0  0  0
   -0.6391   -1.7426    0.6952 C   0  0  0  0  0  0  0  0  0  0  0  0
   -0.2919   -3.0123    0.9586 N   0  0  0  0  0  0  0  0  0  0  0  0
    1.0036   -3.3362    0.8119 C   0  0  0  0  0  0  0  0  0  0  0  0
    1.9676   -2.4462    0.4114 C   0  0  0  0  0  0  0  0  0  0  0  0
    1.5370   -1.1605    0.1585 C   0  0  0  0  0  0  0  0  0  0  0  0
    2.4462   -0.0777   -0.2716 C   0  0  0  0  0  0  0  0  0  0  0  0
    3.5654   -0.3199   -1.0900 C   0  0  0  0  0  0  0  0  0  0  0  0
    4.4176    0.7180   -1.4830 C   0  0  0  0  0  0  0  0  0  0  0  0
    4.1671    2.0227   -1.0683 C   0  0  0  0  0  0  0  0  0  0  0  0
    3.0631    2.2919   -0.2657 C   0  0  0  0  0  0  0  0  0  0  0  0
    2.2130    1.2530    0.1246 C   0  0  0  0  0  0  0  0  0  0  0  0
    0.2399   -0.8097    0.3064 N   0  0  0  0  0  0  0  0  0  0  0  0
   -4.1321   -0.3667    1.0293 C   0  0  0  0  0  0  0  0  0  0  0  0
   -4.9780    0.7306    0.8394 C   0  0  0  0  0  0  0  0  0  0  0  0
   -5.1396    2.7469    0.1011 H   0  0  0  0  0  0  0  0  0  0  0  0
   -2.7605    2.8537   -0.6013 H   0  0  0  0  0  0  0  0  0  0  0  0
   -1.2800    0.9373   -0.2732 H   0  0  0  0  0  0  0  0  0  0  0  0
   -2.4620   -2.2958    1.1737 H   0  0  0  0  0  0  0  0  0  0  0  0
    1.2522   -4.3688    1.0385 H   0  0  0  0  0  0  0  0  0  0  0  0
    3.0019   -2.7475    0.3244 H   0  0  0  0  0  0  0  0  0  0  0  0
    3.7800   -1.3224   -1.4527 H   0  0  0  0  0  0  0  0  0  0  0  0
    5.2730    0.5062   -2.1195 H   0  0  0  0  0  0  0  0  0  0  0  0
    4.8271    2.8296   -1.3752 H   0  0  0  0  0  0  0  0  0  0  0  0
    2.8575    3.3090    0.0577 H   0  0  0  0  0  0  0  0  0  0  0  0
    1.3542    1.4873    0.7529 H   0  0  0  0  0  0  0  0  0  0  0  0
   -4.5395   -1.2589    1.4987 H   0  0  0  0  0  0  0  0  0  0  0  0
   -6.0166    0.6761    1.1539 H   0  0  0  0  0  0  0  0  0  0  0  0
  1  2  2  0
  2  3  1  0
  3  4  2  0
  4  5  1  0
  5  6  1  0
  6  7  2  0
  7  8  1  0
  8  9  2  0
  9 10  1  0
 10 11  1  0
 11 12  2  0
 12 13  1  0
 13 14  2  0
 14 15  1  0
 15 16  2  0
 10 17  2  0
  4 18  1  0
 18 19  2  0
 19  1  1  0
 17  6  1  0
 16 11  1  0
  1 20  1  0
  2 21  1  0
  3 22  1  0
  5 23  1  0
  8 24  1  0
  9 25  1  0
 12 26  1  0
 13 27  1  0
 14 28  1  0
 15 29  1  0
 16 30  1  0
 18 31  1  0
 19 32  1  0
M  END
>  <Source>  (1) 
BindingForge_Novel

>  <SMILES>  (1) 
c1ccc(Nc2nccc(c3ccccc3)n2)cc1

$$$$
