Molecule_03
     RDKit          3D

 61 65  0  0  0  0  0  0  0  0999 V2000
   -0.4568   -1.1907    2.7268 C   0  0  0  0  0  0  0  0  0  0  0  0
    0.2288   -0.3631    3.6944 C   0  0  0  0  0  0  0  0  0  0  0  0
    0.7422    0.8467    3.4264 C   0  0  0  0  0  0  0  0  0  0  0  0
    0.4446    1.6334    2.2487 C   0  0  0  0  0  0  0  0  0  0  0  0
   -0.8023    1.6846    1.7469 C   0  0  0  0  0  0  0  0  0  0  0  0
   -1.4177    0.5969    1.2130 C   0  0  0  0  0  0  0  0  0  0  0  0
   -1.0820   -0.8202    1.5833 C   0  0  0  0  0  0  0  0  0  0  0  0
   -1.2402   -1.7962    0.5570 N   0  0  0  0  0  0  0  0  0  0  0  0
   -0.1060   -2.5537    0.1332 C   0  0  0  0  0  0  0  0  0  0  0  0
   -0.2171   -3.8916    0.0583 N   0  0  0  0  0  0  0  0  0  0  0  0
    0.8849   -4.5370   -0.3371 C   0  0  0  0  0  0  0  0  0  0  0  0
    2.0743   -4.0015   -0.6467 N   0  0  0  0  0  0  0  0  0  0  0  0
    2.1524   -2.6624   -0.5912 C   0  0  0  0  0  0  0  0  0  0  0  0
    1.0726   -1.8990   -0.1928 C   0  0  0  0  0  0  0  0  0  0  0  0
    3.4285   -2.1062   -0.8144 N   0  0  0  0  0  0  0  0  0  0  0  0
    3.4169   -0.8559   -1.6028 C   0  0  0  0  0  0  0  0  0  0  0  0
    3.8002    0.3342   -0.7200 C   0  0  0  0  0  0  0  0  0  0  0  0
    3.8755    1.6359   -1.5194 C   0  0  0  0  0  0  0  0  0  0  0  0
    3.8566    2.8723   -0.6133 C   0  0  0  0  0  0  0  0  0  0  0  0
    2.4643    3.4988   -0.4352 C   0  0  0  0  0  0  0  0  0  0  0  0
    1.4341    2.4045    1.6061 N   0  0  0  0  0  0  0  0  0  0  0  0
    1.4253    2.6240    0.2040 C   0  0  0  0  0  0  0  0  0  0  0  0
    0.6585    1.8222   -0.5895 N   0  0  0  0  0  0  0  0  0  0  0  0
   -0.4794    2.4194   -1.0520 C   0  0  0  0  0  0  0  0  0  0  0  0
   -1.7336    1.8560   -0.9633 N   0  0  0  0  0  0  0  0  0  0  0  0
   -2.0450    0.9035    0.0080 C   0  0  0  0  0  0  0  0  0  0  0  0
   -3.4211    0.2749   -0.3690 C   0  0  0  0  0  0  0  0  0  0  0  0
   -3.4162   -0.5974   -1.6431 C   0  0  0  0  0  0  0  0  0  0  0  0
   -4.1807   -1.8987   -1.4461 C   0  0  0  0  0  0  0  0  0  0  0  0
   -5.5070   -1.6816   -0.9597 O   0  0  0  0  0  0  0  0  0  0  0  0
   -5.5680   -0.8730    0.2187 C   0  0  0  0  0  0  0  0  0  0  0  0
   -4.2247   -0.3946    0.7595 C   0  0  0  0  0  0  0  0  0  0  0  0
   -0.2730   -2.2528    2.8732 H   0  0  0  0  0  0  0  0  0  0  0  0
    0.4712   -0.8406    4.6370 H   0  0  0  0  0  0  0  0  0  0  0  0
    1.3520    1.3508    4.1668 H   0  0  0  0  0  0  0  0  0  0  0  0
   -1.0348    2.6275    1.2480 H   0  0  0  0  0  0  0  0  0  0  0  0
   -1.3948   -1.2002   -0.2679 H   0  0  0  0  0  0  0  0  0  0  0  0
    0.8116   -5.6153   -0.4061 H   0  0  0  0  0  0  0  0  0  0  0  0
    1.1193   -0.8152   -0.1221 H   0  0  0  0  0  0  0  0  0  0  0  0
    3.7445   -1.8697    0.1250 H   0  0  0  0  0  0  0  0  0  0  0  0
    4.1736   -0.9674   -2.3887 H   0  0  0  0  0  0  0  0  0  0  0  0
    2.4653   -0.6833   -2.1206 H   0  0  0  0  0  0  0  0  0  0  0  0
    4.7768    0.1493   -0.2529 H   0  0  0  0  0  0  0  0  0  0  0  0
    3.0898    0.4183    0.1068 H   0  0  0  0  0  0  0  0  0  0  0  0
    3.0711    1.6943   -2.2614 H   0  0  0  0  0  0  0  0  0  0  0  0
    4.8149    1.6279   -2.0864 H   0  0  0  0  0  0  0  0  0  0  0  0
    4.4968    3.6379   -1.0704 H   0  0  0  0  0  0  0  0  0  0  0  0
    4.3007    2.6452    0.3636 H   0  0  0  0  0  0  0  0  0  0  0  0
    2.1116    3.8551   -1.4121 H   0  0  0  0  0  0  0  0  0  0  0  0
    2.5750    4.4016    0.1796 H   0  0  0  0  0  0  0  0  0  0  0  0
    2.3666    2.2444    1.9473 H   0  0  0  0  0  0  0  0  0  0  0  0
   -0.4241    3.4242   -1.4688 H   0  0  0  0  0  0  0  0  0  0  0  0
   -4.0503    1.1461   -0.6265 H   0  0  0  0  0  0  0  0  0  0  0  0
   -2.4053   -0.8124   -2.0052 H   0  0  0  0  0  0  0  0  0  0  0  0
   -3.9083   -0.0274   -2.4427 H   0  0  0  0  0  0  0  0  0  0  0  0
   -3.6584   -2.5793   -0.7648 H   0  0  0  0  0  0  0  0  0  0  0  0
   -4.2681   -2.4220   -2.4043 H   0  0  0  0  0  0  0  0  0  0  0  0
   -6.0916   -1.4518    0.9869 H   0  0  0  0  0  0  0  0  0  0  0  0
   -6.2056   -0.0133   -0.0151 H   0  0  0  0  0  0  0  0  0  0  0  0
   -3.7004   -1.2607    1.1701 H   0  0  0  0  0  0  0  0  0  0  0  0
   -4.3884    0.3041    1.5880 H   0  0  0  0  0  0  0  0  0  0  0  0
  1  2  1  0
  2  3  2  0
  3  4  1  0
  4  5  2  0
  5  6  1  0
  6  7  1  0
  7  8  1  0
  8  9  1  0
  9 10  2  0
 10 11  1  0
 11 12  2  0
 12 13  1  0
 13 14  2  0
 13 15  1  0
 15 16  1  0
 16 17  1  0
 17 18  1  0
 18 19  1  0
 19 20  1  0
  4 21  1  0
 21 22  1  0
 22 23  2  0
 23 24  1  0
 24 25  2  0
 25 26  1  0
 26 27  1  0
 27 28  1  0
 28 29  1  0
 29 30  1  0
 30 31  1  0
 31 32  1  0
  7  1  2  0
 14  9  1  0
 22 20  1  0
 32 27  1  0
 26  6  2  0
  1 33  1  0
  2 34  1  0
  3 35  1  0
  5 36  1  0
  8 37  1  0
 11 38  1  0
 14 39  1  0
 15 40  1  0
 16 41  1  0
 16 42  1  0
 17 43  1  0
 17 44  1  0
 18 45  1  0
 18 46  1  0
 19 47  1  0
 19 48  1  0
 20 49  1  0
 20 50  1  0
 21 51  1  0
 24 52  1  0
 27 53  1  0
 28 54  1  0
 28 55  1  0
 29 56  1  0
 29 57  1  0
 31 58  1  0
 31 59  1  0
 32 60  1  0
 32 61  1  0
M  END
>  <Source>  (1) 
Previous_Project

>  <SMILES>  (1) 
c1ccc(cc2c1Nc1ncnc(c1)NCCCCC1)Nc1ncnc2C1CCOCC1

$$$$
