Molecule_18
     RDKit          3D

 36 38  0  0  0  0  0  0  0  0999 V2000
    7.1303   -0.3566    0.9969 C   0  0  0  0  0  0  0  0  0  0  0  0
    6.3123    0.0703   -0.0848 O   0  0  0  0  0  0  0  0  0  0  0  0
    4.9599   -0.0120    0.0945 C   0  0  0  0  0  0  0  0  0  0  0  0
    4.1963    0.4181   -0.9892 C   0  0  0  0  0  0  0  0  0  0  0  0
    2.7965    0.3879   -0.9401 C   0  0  0  0  0  0  0  0  0  0  0  0
    2.1239   -0.0717    0.1935 C   0  0  0  0  0  0  0  0  0  0  0  0
    0.7325   -0.1320    0.3082 N   0  0  0  0  0  0  0  0  0  0  0  0
   -0.3266    0.2113   -0.5267 C   0  0  0  0  0  0  0  0  0  0  0  0
   -0.1352    0.7189   -1.7507 N   0  0  0  0  0  0  0  0  0  0  0  0
   -1.2276    1.0165   -2.4721 C   0  0  0  0  0  0  0  0  0  0  0  0
   -2.5086    0.8332   -2.0178 C   0  0  0  0  0  0  0  0  0  0  0  0
   -2.6312    0.3108   -0.7471 C   0  0  0  0  0  0  0  0  0  0  0  0
   -3.9394    0.0494   -0.1113 C   0  0  0  0  0  0  0  0  0  0  0  0
   -4.1075   -1.0413    0.7626 C   0  0  0  0  0  0  0  0  0  0  0  0
   -5.3384   -1.3093    1.3688 C   0  0  0  0  0  0  0  0  0  0  0  0
   -6.4314   -0.4861    1.1175 C   0  0  0  0  0  0  0  0  0  0  0  0
   -6.2925    0.6052    0.2651 C   0  0  0  0  0  0  0  0  0  0  0  0
   -5.0596    0.8702   -0.3410 C   0  0  0  0  0  0  0  0  0  0  0  0
   -1.5449   -0.0069   -0.0053 N   0  0  0  0  0  0  0  0  0  0  0  0
    2.9064   -0.5036    1.2768 C   0  0  0  0  0  0  0  0  0  0  0  0
    4.3076   -0.4754    1.2328 C   0  0  0  0  0  0  0  0  0  0  0  0
    8.1748   -0.2273    0.6974 H   0  0  0  0  0  0  0  0  0  0  0  0
    6.9753   -1.4186    1.2140 H   0  0  0  0  0  0  0  0  0  0  0  0
    6.9607    0.2583    1.8870 H   0  0  0  0  0  0  0  0  0  0  0  0
    4.6902    0.7824   -1.8866 H   0  0  0  0  0  0  0  0  0  0  0  0
    2.2518    0.7335   -1.8130 H   0  0  0  0  0  0  0  0  0  0  0  0
    0.3566   -0.4713    1.1810 H   0  0  0  0  0  0  0  0  0  0  0  0
   -1.0335    1.4182   -3.4621 H   0  0  0  0  0  0  0  0  0  0  0  0
   -3.3592    1.0726   -2.6402 H   0  0  0  0  0  0  0  0  0  0  0  0
   -3.2660   -1.6996    0.9740 H   0  0  0  0  0  0  0  0  0  0  0  0
   -5.4384   -2.1603    2.0375 H   0  0  0  0  0  0  0  0  0  0  0  0
   -7.3883   -0.6913    1.5902 H   0  0  0  0  0  0  0  0  0  0  0  0
   -7.1417    1.2567    0.0752 H   0  0  0  0  0  0  0  0  0  0  0  0
   -4.9832    1.7447   -0.9831 H   0  0  0  0  0  0  0  0  0  0  0  0
    2.4269   -0.8720    2.1808 H   0  0  0  0  0  0  0  0  0  0  0  0
    4.8514   -0.8227    2.1042 H   0  0  0  0  0  0  0  0  0  0  0  0
  1  2  1  0
  2  3  1  0
  3  4  2  0
  4  5  1  0
  5  6  2  0
  6  7  1  0
  7  8  1  0
  8  9  2  0
  9 10  1  0
 10 11  2  0
 11 12  1  0
 12 13  1  0
 13 14  2  0
 14 15  1  0
 15 16  2  0
 16 17  1  0
 17 18  2  0
 12 19  2  0
  6 20  1  0
 20 21  2  0
 21  3  1  0
 19  8  1  0
 18 13  1  0
  1 22  1  0
  1 23  1  0
  1 24  1  0
  4 25  1  0
  5 26  1  0
  7 27  1  0
 10 28  1  0
 11 29  1  0
 14 30  1  0
 15 31  1  0
 16 32  1  0
 17 33  1  0
 18 34  1  0
 20 35  1  0
 21 36  1  0
M  END
>  <Source>  (1) 
BindingForge_Novel

>  <SMILES>  (1) 
COc1ccc(Nc2nccc(c3ccccc3)n2)cc1

$$$$
