Molecule_02
     RDKit          3D

 48 51  0  0  0  0  0  0  0  0999 V2000
    3.5235   -1.3138   -0.8448 N   0  0  0  0  0  0  0  0  0  0  0  0
    3.3263    0.0164   -0.6559 C   0  0  0  0  0  0  0  0  0  0  0  0
    4.3844    0.9028   -0.4699 C   0  0  0  0  0  0  0  0  0  0  0  0
    4.2071    2.2416   -0.2981 N   0  0  0  0  0  0  0  0  0  0  0  0
    2.9494    2.6884   -0.2975 C   0  0  0  0  0  0  0  0  0  0  0  0
    1.8564    1.9381   -0.4558 N   0  0  0  0  0  0  0  0  0  0  0  0
    2.0579    0.6136   -0.6340 C   0  0  0  0  0  0  0  0  0  0  0  0
    0.9567   -0.2399   -0.8021 C   0  0  0  0  0  0  0  0  0  0  0  0
   -0.3528    0.3233   -0.8159 N   0  0  0  0  0  0  0  0  0  0  0  0
   -1.5516   -0.1774   -0.2644 C   0  0  0  0  0  0  0  0  0  0  0  0
   -1.5929   -1.1798    0.7026 C   0  0  0  0  0  0  0  0  0  0  0  0
   -2.8170   -1.6284    1.1946 C   0  0  0  0  0  0  0  0  0  0  0  0
   -4.0136   -1.0709    0.7316 C   0  0  0  0  0  0  0  0  0  0  0  0
   -4.0192   -0.0378   -0.2041 C   0  0  0  0  0  0  0  0  0  0  0  0
   -5.1569    0.5286   -0.7599 N   0  0  0  0  0  0  0  0  0  0  0  0
   -6.5460    0.3872   -0.3231 C   0  0  0  0  0  0  0  0  0  0  0  0
   -6.7642    0.8341    1.1177 C   0  0  0  0  0  0  0  0  0  0  0  0
   -7.1176   -0.9931   -0.6275 C   0  0  0  0  0  0  0  0  0  0  0  0
   -2.7682    0.3733   -0.7037 C   0  0  0  0  0  0  0  0  0  0  0  0
    1.1510   -1.6069   -1.0168 C   0  0  0  0  0  0  0  0  0  0  0  0
    2.4401   -2.0920   -1.0255 C   0  0  0  0  0  0  0  0  0  0  0  0
    5.8976    0.4627   -0.4640 C   0  0  0  0  0  0  0  0  0  0  0  0
    6.9533    1.3558    0.2575 C   0  0  0  0  0  0  0  0  0  0  0  0
    7.6996    0.0599    0.6261 C   0  0  0  0  0  0  0  0  0  0  0  0
    6.3437   -0.6627    0.5167 C   0  0  0  0  0  0  0  0  0  0  0  0
    2.8048    3.7534   -0.1541 H   0  0  0  0  0  0  0  0  0  0  0  0
   -0.2831    1.3357   -0.6774 H   0  0  0  0  0  0  0  0  0  0  0  0
   -0.6807   -1.6124    1.1008 H   0  0  0  0  0  0  0  0  0  0  0  0
   -2.8435   -2.4153    1.9445 H   0  0  0  0  0  0  0  0  0  0  0  0
   -4.9343   -1.4676    1.1396 H   0  0  0  0  0  0  0  0  0  0  0  0
   -4.9715    1.4487   -1.1523 H   0  0  0  0  0  0  0  0  0  0  0  0
   -7.1176    1.0869   -0.9480 H   0  0  0  0  0  0  0  0  0  0  0  0
   -7.8355    0.8964    1.3384 H   0  0  0  0  0  0  0  0  0  0  0  0
   -6.3229    0.1466    1.8435 H   0  0  0  0  0  0  0  0  0  0  0  0
   -6.3275    1.8244    1.2882 H   0  0  0  0  0  0  0  0  0  0  0  0
   -6.9222   -1.2767   -1.6678 H   0  0  0  0  0  0  0  0  0  0  0  0
   -6.7045   -1.7760    0.0127 H   0  0  0  0  0  0  0  0  0  0  0  0
   -8.2032   -0.9941   -0.4781 H   0  0  0  0  0  0  0  0  0  0  0  0
   -2.7350    1.1393   -1.4761 H   0  0  0  0  0  0  0  0  0  0  0  0
    0.3148   -2.2732   -1.1968 H   0  0  0  0  0  0  0  0  0  0  0  0
    2.6431   -3.1472   -1.1891 H   0  0  0  0  0  0  0  0  0  0  0  0
    6.2238    0.2411   -1.4934 H   0  0  0  0  0  0  0  0  0  0  0  0
    7.5044    2.0464   -0.3860 H   0  0  0  0  0  0  0  0  0  0  0  0
    6.5754    1.9023    1.1295 H   0  0  0  0  0  0  0  0  0  0  0  0
    8.4304   -0.2597   -0.1252 H   0  0  0  0  0  0  0  0  0  0  0  0
    8.1695    0.0423    1.6129 H   0  0  0  0  0  0  0  0  0  0  0  0
    5.7833   -0.6932    1.4590 H   0  0  0  0  0  0  0  0  0  0  0  0
    6.3849   -1.6711    0.0957 H   0  0  0  0  0  0  0  0  0  0  0  0
  1  2  2  0
  2  3  1  0
  3  4  2  0
  4  5  1  0
  5  6  2  0
  6  7  1  0
  7  8  2  0
  8  9  1  0
  9 10  1  0
 10 11  2  0
 11 12  1  0
 12 13  2  0
 13 14  1  0
 14 15  1  0
 15 16  1  0
 16 17  1  0
 16 18  1  0
 14 19  2  0
  8 20  1  0
 20 21  2  0
  3 22  1  0
 22 23  1  0
 23 24  1  0
 24 25  1  0
 21  1  1  0
 25 22  1  0
  7  2  1  0
 19 10  1  0
  5 26  1  0
  9 27  1  0
 11 28  1  0
 12 29  1  0
 13 30  1  0
 15 31  1  0
 16 32  1  0
 17 33  1  0
 17 34  1  0
 17 35  1  0
 18 36  1  0
 18 37  1  0
 18 38  1  0
 19 39  1  0
 20 40  1  0
 21 41  1  0
 22 42  1  0
 23 43  1  0
 23 44  1  0
 24 45  1  0
 24 46  1  0
 25 47  1  0
 25 48  1  0
M  END
>  <Source>  (1) 
Previous_Project

>  <SMILES>  (1) 
n1c2c(ncnc2c(Nc2cccc(NC(C)C)c2)cc1)C1CCC1

$$$$
