REMARK  Name = Molecule_18
REMARK  4 active torsions:
REMARK  status: ('A' for Active; 'I' for Inactive)
REMARK    1  A    between atoms: C_1  and  O_2
REMARK    2  A    between atoms: O_2  and  C_3
REMARK    3  A    between atoms: C_6  and  N_7
REMARK    4  A    between atoms: C_12  and  C_13
REMARK                            x       y       z     vdW  Elec       q    Type
REMARK                         _______ _______ _______ _____ _____    ______ ____
ROOT
ATOM      1  N   UNL     1       0.733  -0.132   0.308  0.00  0.00    +0.000 N 
ATOM      2  C   UNL     1      -0.327   0.211  -0.527  0.00  0.00    +0.000 A 
ATOM      3  N   UNL     1      -0.135   0.719  -1.751  0.00  0.00    +0.000 NA
ATOM      4  C   UNL     1      -1.228   1.016  -2.472  0.00  0.00    +0.000 A 
ATOM      5  C   UNL     1      -2.509   0.833  -2.018  0.00  0.00    +0.000 A 
ATOM      6  C   UNL     1      -2.631   0.311  -0.747  0.00  0.00    +0.000 A 
ATOM      7  N   UNL     1      -1.545  -0.007  -0.005  0.00  0.00    +0.000 NA
ATOM      8  H   UNL     1       0.357  -0.471   1.181  0.00  0.00    +0.000 HD
ENDROOT
BRANCH   1  12
ATOM      9  C   UNL     1       4.960  -0.012   0.095  0.00  0.00    +0.000 A 
ATOM     10  C   UNL     1       4.196   0.418  -0.989  0.00  0.00    +0.000 A 
ATOM     11  C   UNL     1       2.796   0.388  -0.940  0.00  0.00    +0.000 A 
ATOM     12  C   UNL     1       2.124  -0.072   0.194  0.00  0.00    +0.000 A 
ATOM     13  C   UNL     1       2.906  -0.504   1.277  0.00  0.00    +0.000 A 
ATOM     14  C   UNL     1       4.308  -0.475   1.233  0.00  0.00    +0.000 A 
BRANCH   9  16
ATOM     15  C   UNL     1       7.130  -0.357   0.997  0.00  0.00    +0.000 C 
ATOM     16  O   UNL     1       6.312   0.070  -0.085  0.00  0.00    +0.000 OA
ENDBRANCH   9  16
ENDBRANCH   1  12
BRANCH   6  17
ATOM     17  C   UNL     1      -3.939   0.049  -0.111  0.00  0.00    +0.000 A 
ATOM     18  C   UNL     1      -4.107  -1.041   0.763  0.00  0.00    +0.000 A 
ATOM     19  C   UNL     1      -5.338  -1.309   1.369  0.00  0.00    +0.000 A 
ATOM     20  C   UNL     1      -6.431  -0.486   1.117  0.00  0.00    +0.000 A 
ATOM     21  C   UNL     1      -6.293   0.605   0.265  0.00  0.00    +0.000 A 
ATOM     22  C   UNL     1      -5.060   0.870  -0.341  0.00  0.00    +0.000 A 
ENDBRANCH   6  17
TORSDOF 3
