REMARK  Name = Molecule_16
REMARK  2 active torsions:
REMARK  status: ('A' for Active; 'I' for Inactive)
REMARK    1  A    between atoms: C_1  and  C_2
REMARK    2  A    between atoms: N_10  and  C_11
REMARK                            x       y       z     vdW  Elec       q    Type
REMARK                         _______ _______ _______ _____ _____    ______ ____
ROOT
ATOM      1  C   UNL     1      -4.169   1.787   0.580  0.00  0.00    +0.000 C 
ATOM      2  C   UNL     1      -3.427   0.573   0.108  0.00  0.00    +0.000 A 
ATOM      3  C   UNL     1      -4.114  -0.542  -0.366  0.00  0.00    +0.000 A 
ATOM      4  C   UNL     1      -3.409  -1.661  -0.819  0.00  0.00    +0.000 A 
ATOM      5  C   UNL     1      -2.021  -1.703  -0.831  0.00  0.00    +0.000 A 
ATOM      6  N   UNL     1      -1.420  -2.812  -1.270  0.00  0.00    +0.000 NA
ATOM      7  C   UNL     1      -0.084  -2.813  -1.262  0.00  0.00    +0.000 A 
ATOM      8  N   UNL     1       0.705  -1.809  -0.870  0.00  0.00    +0.000 NA
ATOM      9  C   UNL     1       0.094  -0.689  -0.443  0.00  0.00    +0.000 A 
ATOM     10  N   UNL     1       0.885   0.429  -0.055  0.00  0.00    +0.000 N 
ATOM     11  C   UNL     1      -1.311  -0.579  -0.386  0.00  0.00    +0.000 A 
ATOM     12  C   UNL     1      -2.028   0.554   0.085  0.00  0.00    +0.000 A 
ATOM     13  H   UNL     1       0.576   1.237  -0.586  0.00  0.00    +0.000 HD
ENDROOT
BRANCH  10  14
ATOM     14  C   UNL     1       2.272   0.471   0.210  0.00  0.00    +0.000 A 
ATOM     15  C   UNL     1       2.975  -0.627   0.727  0.00  0.00    +0.000 A 
ATOM     16  C   UNL     1       4.334  -0.532   1.041  0.00  0.00    +0.000 A 
ATOM     17  C   UNL     1       4.998   0.674   0.865  0.00  0.00    +0.000 A 
ATOM     18  F   UNL     1       6.301   0.748   1.174  0.00  0.00    +0.000 F 
ATOM     19  C   UNL     1       4.314   1.788   0.388  0.00  0.00    +0.000 A 
ATOM     20 CL   UNL     1       5.121   3.296   0.187  0.00  0.00    +0.000 Cl
ATOM     21  C   UNL     1       2.955   1.691   0.074  0.00  0.00    +0.000 A 
ENDBRANCH  10  14
TORSDOF 1
