MODEL 1
REMARK VINA RESULT:      -8.1      0.000      0.000
REMARK  Name = Molecule_16
REMARK  2 active torsions:
REMARK  status: ('A' for Active; 'I' for Inactive)
REMARK    1  A    between atoms: C_1  and  C_2
REMARK    2  A    between atoms: N_10  and  C_11
REMARK                            x       y       z     vdW  Elec       q    Type
REMARK                         _______ _______ _______ _____ _____    ______ ____
ROOT
ATOM      1  C   UNL     1      24.880   3.248  49.998  0.00  0.00    +0.000 C 
ATOM      2  C   UNL     1      25.333   4.508  49.325  0.00  0.00    +0.000 A 
ATOM      3  C   UNL     1      24.409   5.457  48.892  0.00  0.00    +0.000 A 
ATOM      4  C   UNL     1      24.847   6.636  48.282  0.00  0.00    +0.000 A 
ATOM      5  C   UNL     1      26.195   6.915  48.097  0.00  0.00    +0.000 A 
ATOM      6  N   UNL     1      26.534   8.058  47.497  0.00  0.00    +0.000 NA
ATOM      7  C   UNL     1      27.840   8.287  47.336  0.00  0.00    +0.000 A 
ATOM      8  N   UNL     1      28.836   7.489  47.728  0.00  0.00    +0.000 NA
ATOM      9  C   UNL     1      28.490   6.345  48.346  0.00  0.00    +0.000 A 
ATOM     10  N   UNL     1      29.511   5.477  48.825  0.00  0.00    +0.000 N 
ATOM     11  C   UNL     1      27.141   5.986  48.553  0.00  0.00    +0.000 A 
ATOM     12  C   UNL     1      26.696   4.782  49.163  0.00  0.00    +0.000 A 
ATOM     13  H   UNL     1      29.343   5.302  49.811  0.00  0.00    +0.000 HD
ENDROOT
BRANCH  10  14
ATOM     14  C   UNL     1      30.890   5.495  48.520  0.00  0.00    +0.000 A 
ATOM     15  C   UNL     1      31.813   6.264  49.243  0.00  0.00    +0.000 A 
ATOM     16  C   UNL     1      33.161   6.311  48.874  0.00  0.00    +0.000 A 
ATOM     17  C   UNL     1      33.593   5.609  47.758  0.00  0.00    +0.000 A 
ATOM     18  F   UNL     1      34.889   5.668  47.417  0.00  0.00    +0.000 F 
ATOM     19  C   UNL     1      32.690   4.867  47.002  0.00  0.00    +0.000 A 
ATOM     20 CL   UNL     1      33.210   4.010  45.602  0.00  0.00    +0.000 Cl
ATOM     21  C   UNL     1      31.343   4.821  47.374  0.00  0.00    +0.000 A 
ENDBRANCH  10  14
TORSDOF 1
ENDMDL
MODEL 2
REMARK VINA RESULT:      -7.7      3.524      6.835
REMARK  Name = Molecule_16
REMARK  2 active torsions:
REMARK  status: ('A' for Active; 'I' for Inactive)
REMARK    1  A    between atoms: C_1  and  C_2
REMARK    2  A    between atoms: N_10  and  C_11
REMARK                            x       y       z     vdW  Elec       q    Type
REMARK                         _______ _______ _______ _____ _____    ______ ____
ROOT
ATOM      1  C   UNL     1      33.655   2.496  46.934  0.00  0.00    +0.000 C 
ATOM      2  C   UNL     1      33.367   3.852  47.506  0.00  0.00    +0.000 A 
ATOM      3  C   UNL     1      34.403   4.735  47.798  0.00  0.00    +0.000 A 
ATOM      4  C   UNL     1      34.120   6.003  48.315  0.00  0.00    +0.000 A 
ATOM      5  C   UNL     1      32.819   6.434  48.540  0.00  0.00    +0.000 A 
ATOM      6  N   UNL     1      32.630   7.656  49.045  0.00  0.00    +0.000 NA
ATOM      7  C   UNL     1      31.364   8.031  49.250  0.00  0.00    +0.000 A 
ATOM      8  N   UNL     1      30.273   7.307  48.987  0.00  0.00    +0.000 NA
ATOM      9  C   UNL     1      30.469   6.083  48.464  0.00  0.00    +0.000 A 
ATOM     10  N   UNL     1      29.341   5.284  48.122  0.00  0.00    +0.000 N 
ATOM     11  C   UNL     1      31.761   5.570  48.224  0.00  0.00    +0.000 A 
ATOM     12  C   UNL     1      32.050   4.277  47.709  0.00  0.00    +0.000 A 
ATOM     13  H   UNL     1      29.432   5.005  47.150  0.00  0.00    +0.000 HD
ENDROOT
BRANCH  10  14
ATOM     14  C   UNL     1      27.991   5.471  48.494  0.00  0.00    +0.000 A 
ATOM     15  C   UNL     1      27.381   6.733  48.513  0.00  0.00    +0.000 A 
ATOM     16  C   UNL     1      26.063   6.892  48.950  0.00  0.00    +0.000 A 
ATOM     17  C   UNL     1      25.349   5.790  49.399  0.00  0.00    +0.000 A 
ATOM     18  F   UNL     1      24.086   5.961  49.817  0.00  0.00    +0.000 F 
ATOM     19  C   UNL     1      25.944   4.532  49.424  0.00  0.00    +0.000 A 
ATOM     20 CL   UNL     1      25.077   3.160  50.000  0.00  0.00    +0.000 Cl
ATOM     21  C   UNL     1      27.263   4.375  48.986  0.00  0.00    +0.000 A 
ENDBRANCH  10  14
TORSDOF 1
ENDMDL
MODEL 3
REMARK VINA RESULT:      -7.5      3.525      6.877
REMARK  Name = Molecule_16
REMARK  2 active torsions:
REMARK  status: ('A' for Active; 'I' for Inactive)
REMARK    1  A    between atoms: C_1  and  C_2
REMARK    2  A    between atoms: N_10  and  C_11
REMARK                            x       y       z     vdW  Elec       q    Type
REMARK                         _______ _______ _______ _____ _____    ______ ____
ROOT
ATOM      1  C   UNL     1      33.687   2.387  47.014  0.00  0.00    +0.000 C 
ATOM      2  C   UNL     1      33.401   3.756  47.553  0.00  0.00    +0.000 A 
ATOM      3  C   UNL     1      34.438   4.643  47.831  0.00  0.00    +0.000 A 
ATOM      4  C   UNL     1      34.156   5.923  48.318  0.00  0.00    +0.000 A 
ATOM      5  C   UNL     1      32.856   6.363  48.526  0.00  0.00    +0.000 A 
ATOM      6  N   UNL     1      32.668   7.596  49.003  0.00  0.00    +0.000 NA
ATOM      7  C   UNL     1      31.402   7.980  49.192  0.00  0.00    +0.000 A 
ATOM      8  N   UNL     1      30.310   7.253  48.939  0.00  0.00    +0.000 NA
ATOM      9  C   UNL     1      30.505   6.017  48.445  0.00  0.00    +0.000 A 
ATOM     10  N   UNL     1      29.376   5.215  48.115  0.00  0.00    +0.000 N 
ATOM     11  C   UNL     1      31.797   5.495  48.224  0.00  0.00    +0.000 A 
ATOM     12  C   UNL     1      32.084   4.190  47.740  0.00  0.00    +0.000 A 
ATOM     13  H   UNL     1      29.471   4.914  47.150  0.00  0.00    +0.000 HD
ENDROOT
BRANCH  10  14
ATOM     14  C   UNL     1      28.025   5.414  48.475  0.00  0.00    +0.000 A 
ATOM     15  C   UNL     1      27.245   4.408  49.065  0.00  0.00    +0.000 A 
ATOM     16  C   UNL     1      25.892   4.616  49.349  0.00  0.00    +0.000 A 
ATOM     17  C   UNL     1      25.298   5.826  49.019  0.00  0.00    +0.000 A 
ATOM     18  F   UNL     1      23.998   6.007  49.295  0.00  0.00    +0.000 F 
ATOM     19  C   UNL     1      26.041   6.826  48.399  0.00  0.00    +0.000 A 
ATOM     20 CL   UNL     1      25.310   8.323  47.964  0.00  0.00    +0.000 Cl
ATOM     21  C   UNL     1      27.394   6.617  48.117  0.00  0.00    +0.000 A 
ENDBRANCH  10  14
TORSDOF 1
ENDMDL
MODEL 4
REMARK VINA RESULT:      -7.2      4.329      6.732
REMARK  Name = Molecule_16
REMARK  2 active torsions:
REMARK  status: ('A' for Active; 'I' for Inactive)
REMARK    1  A    between atoms: C_1  and  C_2
REMARK    2  A    between atoms: N_10  and  C_11
REMARK                            x       y       z     vdW  Elec       q    Type
REMARK                         _______ _______ _______ _____ _____    ______ ____
ROOT
ATOM      1  C   UNL     1      31.368   7.751  45.016  0.00  0.00    +0.000 C 
ATOM      2  C   UNL     1      30.634   8.341  46.183  0.00  0.00    +0.000 A 
ATOM      3  C   UNL     1      30.931   9.623  46.637  0.00  0.00    +0.000 A 
ATOM      4  C   UNL     1      30.227  10.167  47.715  0.00  0.00    +0.000 A 
ATOM      5  C   UNL     1      29.210   9.472  48.357  0.00  0.00    +0.000 A 
ATOM      6  N   UNL     1      28.590  10.056  49.386  0.00  0.00    +0.000 NA
ATOM      7  C   UNL     1      27.620   9.353  49.978  0.00  0.00    +0.000 A 
ATOM      8  N   UNL     1      27.205   8.132  49.632  0.00  0.00    +0.000 NA
ATOM      9  C   UNL     1      27.823   7.555  48.585  0.00  0.00    +0.000 A 
ATOM     10  N   UNL     1      27.392   6.272  48.144  0.00  0.00    +0.000 N 
ATOM     11  C   UNL     1      28.876   8.192  47.895  0.00  0.00    +0.000 A 
ATOM     12  C   UNL     1      29.599   7.635  46.807  0.00  0.00    +0.000 A 
ATOM     13  H   UNL     1      27.174   6.333  47.155  0.00  0.00    +0.000 HD
ENDROOT
BRANCH  10  14
ATOM     14  C   UNL     1      26.554   5.352  48.813  0.00  0.00    +0.000 A 
ATOM     15  C   UNL     1      27.005   4.096  49.244  0.00  0.00    +0.000 A 
ATOM     16  C   UNL     1      26.134   3.182  49.843  0.00  0.00    +0.000 A 
ATOM     17  C   UNL     1      24.793   3.506  49.993  0.00  0.00    +0.000 A 
ATOM     18  F   UNL     1      23.970   2.616  50.568  0.00  0.00    +0.000 F 
ATOM     19  C   UNL     1      24.313   4.732  49.541  0.00  0.00    +0.000 A 
ATOM     20 CL   UNL     1      22.647   5.137  49.700  0.00  0.00    +0.000 Cl
ATOM     21  C   UNL     1      25.186   5.645  48.942  0.00  0.00    +0.000 A 
ENDBRANCH  10  14
TORSDOF 1
ENDMDL
MODEL 5
REMARK VINA RESULT:      -7.1      2.840      3.209
REMARK  Name = Molecule_16
REMARK  2 active torsions:
REMARK  status: ('A' for Active; 'I' for Inactive)
REMARK    1  A    between atoms: C_1  and  C_2
REMARK    2  A    between atoms: N_10  and  C_11
REMARK                            x       y       z     vdW  Elec       q    Type
REMARK                         _______ _______ _______ _____ _____    ______ ____
ROOT
ATOM      1  C   UNL     1      26.494   2.567  49.787  0.00  0.00    +0.000 C 
ATOM      2  C   UNL     1      25.963   3.901  49.358  0.00  0.00    +0.000 A 
ATOM      3  C   UNL     1      24.600   4.087  49.134  0.00  0.00    +0.000 A 
ATOM      4  C   UNL     1      24.116   5.341  48.751  0.00  0.00    +0.000 A 
ATOM      5  C   UNL     1      24.952   6.438  48.594  0.00  0.00    +0.000 A 
ATOM      6  N   UNL     1      24.415   7.601  48.215  0.00  0.00    +0.000 NA
ATOM      7  C   UNL     1      25.255   8.630  48.072  0.00  0.00    +0.000 A 
ATOM      8  N   UNL     1      26.573   8.610  48.284  0.00  0.00    +0.000 NA
ATOM      9  C   UNL     1      27.107   7.440  48.679  0.00  0.00    +0.000 A 
ATOM     10  N   UNL     1      28.500   7.372  48.962  0.00  0.00    +0.000 N 
ATOM     11  C   UNL     1      26.323   6.279  48.843  0.00  0.00    +0.000 A 
ATOM     12  C   UNL     1      26.817   5.001  49.222  0.00  0.00    +0.000 A 
ATOM     13  H   UNL     1      28.617   7.001  49.899  0.00  0.00    +0.000 HD
ENDROOT
BRANCH  10  14
ATOM     14  C   UNL     1      29.507   8.308  48.636  0.00  0.00    +0.000 A 
ATOM     15  C   UNL     1      29.771   9.437  49.424  0.00  0.00    +0.000 A 
ATOM     16  C   UNL     1      30.729  10.380  49.038  0.00  0.00    +0.000 A 
ATOM     17  C   UNL     1      31.415  10.213  47.843  0.00  0.00    +0.000 A 
ATOM     18  F   UNL     1      32.328  11.129  47.487  0.00  0.00    +0.000 F 
ATOM     19  C   UNL     1      31.145   9.120  47.025  0.00  0.00    +0.000 A 
ATOM     20 CL   UNL     1      31.973   8.915  45.529  0.00  0.00    +0.000 Cl
ATOM     21  C   UNL     1      30.187   8.179  47.413  0.00  0.00    +0.000 A 
ENDBRANCH  10  14
TORSDOF 1
ENDMDL
MODEL 6
REMARK VINA RESULT:      -7.1      4.094      6.875
REMARK  Name = Molecule_16
REMARK  2 active torsions:
REMARK  status: ('A' for Active; 'I' for Inactive)
REMARK    1  A    between atoms: C_1  and  C_2
REMARK    2  A    between atoms: N_10  and  C_11
REMARK                            x       y       z     vdW  Elec       q    Type
REMARK                         _______ _______ _______ _____ _____    ______ ____
ROOT
ATOM      1  C   UNL     1      32.571   4.164  47.224  0.00  0.00    +0.000 C 
ATOM      2  C   UNL     1      31.653   5.338  47.387  0.00  0.00    +0.000 A 
ATOM      3  C   UNL     1      32.070   6.622  47.044  0.00  0.00    +0.000 A 
ATOM      4  C   UNL     1      31.197   7.704  47.185  0.00  0.00    +0.000 A 
ATOM      5  C   UNL     1      29.897   7.549  47.649  0.00  0.00    +0.000 A 
ATOM      6  N   UNL     1      29.127   8.634  47.766  0.00  0.00    +0.000 NA
ATOM      7  C   UNL     1      27.885   8.441  48.218  0.00  0.00    +0.000 A 
ATOM      8  N   UNL     1      27.338   7.269  48.553  0.00  0.00    +0.000 NA
ATOM      9  C   UNL     1      28.114   6.178  48.419  0.00  0.00    +0.000 A 
ATOM     10  N   UNL     1      27.569   4.897  48.718  0.00  0.00    +0.000 N 
ATOM     11  C   UNL     1      29.449   6.260  47.971  0.00  0.00    +0.000 A 
ATOM     12  C   UNL     1      30.340   5.161  47.838  0.00  0.00    +0.000 A 
ATOM     13  H   UNL     1      27.704   4.298  47.910  0.00  0.00    +0.000 HD
ENDROOT
BRANCH  10  14
ATOM     14  C   UNL     1      26.374   4.593  49.407  0.00  0.00    +0.000 A 
ATOM     15  C   UNL     1      25.908   3.280  49.567  0.00  0.00    +0.000 A 
ATOM     16  C   UNL     1      24.688   3.017  50.196  0.00  0.00    +0.000 A 
ATOM     17  C   UNL     1      23.907   4.071  50.649  0.00  0.00    +0.000 A 
ATOM     18  F   UNL     1      22.737   3.801  51.248  0.00  0.00    +0.000 F 
ATOM     19  C   UNL     1      24.330   5.385  50.470  0.00  0.00    +0.000 A 
ATOM     20 CL   UNL     1      23.359   6.702  51.007  0.00  0.00    +0.000 Cl
ATOM     21  C   UNL     1      25.551   5.645  49.841  0.00  0.00    +0.000 A 
ENDBRANCH  10  14
TORSDOF 1
ENDMDL
MODEL 7
REMARK VINA RESULT:      -7.0      5.376      8.183
REMARK  Name = Molecule_16
REMARK  2 active torsions:
REMARK  status: ('A' for Active; 'I' for Inactive)
REMARK    1  A    between atoms: C_1  and  C_2
REMARK    2  A    between atoms: N_10  and  C_11
REMARK                            x       y       z     vdW  Elec       q    Type
REMARK                         _______ _______ _______ _____ _____    ______ ____
ROOT
ATOM      1  C   UNL     1      27.924  10.721  49.029  0.00  0.00    +0.000 C 
ATOM      2  C   UNL     1      27.929   9.234  48.840  0.00  0.00    +0.000 A 
ATOM      3  C   UNL     1      28.940   8.612  48.111  0.00  0.00    +0.000 A 
ATOM      4  C   UNL     1      28.942   7.223  47.957  0.00  0.00    +0.000 A 
ATOM      5  C   UNL     1      27.965   6.416  48.527  0.00  0.00    +0.000 A 
ATOM      6  N   UNL     1      28.030   5.097  48.327  0.00  0.00    +0.000 NA
ATOM      7  C   UNL     1      27.070   4.358  48.889  0.00  0.00    +0.000 A 
ATOM      8  N   UNL     1      26.062   4.809  49.640  0.00  0.00    +0.000 NA
ATOM      9  C   UNL     1      26.010   6.137  49.851  0.00  0.00    +0.000 A 
ATOM     10  N   UNL     1      24.983   6.669  50.680  0.00  0.00    +0.000 N 
ATOM     11  C   UNL     1      26.956   7.020  49.290  0.00  0.00    +0.000 A 
ATOM     12  C   UNL     1      26.948   8.434  49.437  0.00  0.00    +0.000 A 
ATOM     13  H   UNL     1      25.419   7.224  51.410  0.00  0.00    +0.000 HD
ENDROOT
BRANCH  10  14
ATOM     14  C   UNL     1      23.805   6.034  51.132  0.00  0.00    +0.000 A 
ATOM     15  C   UNL     1      23.819   5.020  52.101  0.00  0.00    +0.000 A 
ATOM     16  C   UNL     1      22.643   4.365  52.479  0.00  0.00    +0.000 A 
ATOM     17  C   UNL     1      21.442   4.702  51.869  0.00  0.00    +0.000 A 
ATOM     18  F   UNL     1      20.324   4.061  52.241  0.00  0.00    +0.000 F 
ATOM     19  C   UNL     1      21.408   5.679  50.879  0.00  0.00    +0.000 A 
ATOM     20 CL   UNL     1      19.929   6.089  50.098  0.00  0.00    +0.000 Cl
ATOM     21  C   UNL     1      22.585   6.333  50.503  0.00  0.00    +0.000 A 
ENDBRANCH  10  14
TORSDOF 1
ENDMDL
MODEL 8
REMARK VINA RESULT:      -7.0      2.140      2.850
REMARK  Name = Molecule_16
REMARK  2 active torsions:
REMARK  status: ('A' for Active; 'I' for Inactive)
REMARK    1  A    between atoms: C_1  and  C_2
REMARK    2  A    between atoms: N_10  and  C_11
REMARK                            x       y       z     vdW  Elec       q    Type
REMARK                         _______ _______ _______ _____ _____    ______ ____
ROOT
ATOM      1  C   UNL     1      23.880   2.716  50.363  0.00  0.00    +0.000 C 
ATOM      2  C   UNL     1      24.061   4.204  50.368  0.00  0.00    +0.000 A 
ATOM      3  C   UNL     1      23.090   5.037  50.919  0.00  0.00    +0.000 A 
ATOM      4  C   UNL     1      23.278   6.422  50.933  0.00  0.00    +0.000 A 
ATOM      5  C   UNL     1      24.426   7.015  50.423  0.00  0.00    +0.000 A 
ATOM      6  N   UNL     1      24.528   8.346  50.464  0.00  0.00    +0.000 NA
ATOM      7  C   UNL     1      25.646   8.877  49.960  0.00  0.00    +0.000 A 
ATOM      8  N   UNL     1      26.673   8.205  49.433  0.00  0.00    +0.000 NA
ATOM      9  C   UNL     1      26.570   6.864  49.409  0.00  0.00    +0.000 A 
ATOM     10  N   UNL     1      27.654   6.094  48.899  0.00  0.00    +0.000 N 
ATOM     11  C   UNL     1      25.428   6.192  49.892  0.00  0.00    +0.000 A 
ATOM     12  C   UNL     1      25.231   4.785  49.868  0.00  0.00    +0.000 A 
ATOM     13  H   UNL     1      27.920   5.414  49.604  0.00  0.00    +0.000 HD
ENDROOT
BRANCH  10  14
ATOM     14  C   UNL     1      28.764   6.536  48.145  0.00  0.00    +0.000 A 
ATOM     15  C   UNL     1      28.642   7.444  47.083  0.00  0.00    +0.000 A 
ATOM     16  C   UNL     1      29.751   7.810  46.314  0.00  0.00    +0.000 A 
ATOM     17  C   UNL     1      30.991   7.248  46.585  0.00  0.00    +0.000 A 
ATOM     18  F   UNL     1      32.043   7.608  45.836  0.00  0.00    +0.000 F 
ATOM     19  C   UNL     1      31.131   6.317  47.610  0.00  0.00    +0.000 A 
ATOM     20 CL   UNL     1      32.659   5.596  47.940  0.00  0.00    +0.000 Cl
ATOM     21  C   UNL     1      30.021   5.953  48.378  0.00  0.00    +0.000 A 
ENDBRANCH  10  14
TORSDOF 1
ENDMDL
MODEL 9
REMARK VINA RESULT:      -6.9      4.090      6.886
REMARK  Name = Molecule_16
REMARK  2 active torsions:
REMARK  status: ('A' for Active; 'I' for Inactive)
REMARK    1  A    between atoms: C_1  and  C_2
REMARK    2  A    between atoms: N_10  and  C_11
REMARK                            x       y       z     vdW  Elec       q    Type
REMARK                         _______ _______ _______ _____ _____    ______ ____
ROOT
ATOM      1  C   UNL     1      29.683  11.336  48.837  0.00  0.00    +0.000 C 
ATOM      2  C   UNL     1      30.103   9.955  48.434  0.00  0.00    +0.000 A 
ATOM      3  C   UNL     1      31.354   9.728  47.865  0.00  0.00    +0.000 A 
ATOM      4  C   UNL     1      31.739   8.432  47.510  0.00  0.00    +0.000 A 
ATOM      5  C   UNL     1      30.915   7.334  47.718  0.00  0.00    +0.000 A 
ATOM      6  N   UNL     1      31.351   6.129  47.343  0.00  0.00    +0.000 NA
ATOM      7  C   UNL     1      30.527   5.100  47.557  0.00  0.00    +0.000 A 
ATOM      8  N   UNL     1      29.317   5.160  48.122  0.00  0.00    +0.000 NA
ATOM      9  C   UNL     1      28.890   6.375  48.511  0.00  0.00    +0.000 A 
ATOM     10  N   UNL     1      27.628   6.492  49.159  0.00  0.00    +0.000 N 
ATOM     11  C   UNL     1      29.664   7.538  48.317  0.00  0.00    +0.000 A 
ATOM     12  C   UNL     1      29.268   8.857  48.668  0.00  0.00    +0.000 A 
ATOM     13  H   UNL     1      27.767   6.971  50.043  0.00  0.00    +0.000 HD
ENDROOT
BRANCH  10  14
ATOM     14  C   UNL     1      26.590   5.537  49.234  0.00  0.00    +0.000 A 
ATOM     15  C   UNL     1      26.819   4.200  49.590  0.00  0.00    +0.000 A 
ATOM     16  C   UNL     1      25.781   3.264  49.590  0.00  0.00    +0.000 A 
ATOM     17  C   UNL     1      24.504   3.652  49.208  0.00  0.00    +0.000 A 
ATOM     18  F   UNL     1      23.521   2.741  49.212  0.00  0.00    +0.000 F 
ATOM     19  C   UNL     1      24.259   4.965  48.816  0.00  0.00    +0.000 A 
ATOM     20 CL   UNL     1      22.684   5.454  48.318  0.00  0.00    +0.000 Cl
ATOM     21  C   UNL     1      25.298   5.900  48.817  0.00  0.00    +0.000 A 
ENDBRANCH  10  14
TORSDOF 1
ENDMDL
