MODEL 1
REMARK VINA RESULT:      -8.4      0.000      0.000
REMARK  Name = Molecule_03
REMARK  1 active torsions:
REMARK  status: ('A' for Active; 'I' for Inactive)
REMARK    1  A    between atoms: C_26  and  C_27
REMARK                            x       y       z     vdW  Elec       q    Type
REMARK                         _______ _______ _______ _____ _____    ______ ____
ROOT
ATOM      1  C   UNL     1      31.904  10.036  47.239  0.00  0.00    +0.000 C 
ATOM      2  C   UNL     1      31.392  10.751  48.387  0.00  0.00    +0.000 C 
ATOM      3  C   UNL     1      30.410  10.303  49.182  0.00  0.00    +0.000 C 
ATOM      4  C   UNL     1      29.917   8.943  49.208  0.00  0.00    +0.000 A 
ATOM      5  C   UNL     1      30.759   7.899  49.103  0.00  0.00    +0.000 A 
ATOM      6  C   UNL     1      31.475   7.651  47.974  0.00  0.00    +0.000 A 
ATOM      7  C   UNL     1      31.855   8.707  46.976  0.00  0.00    +0.000 C 
ATOM      8  N   UNL     1      31.952   8.288  45.617  0.00  0.00    +0.000 N 
ATOM      9  C   UNL     1      31.108   8.894  44.637  0.00  0.00    +0.000 A 
ATOM     10  N   UNL     1      31.666   9.355  43.503  0.00  0.00    +0.000 NA
ATOM     11  C   UNL     1      30.818   9.917  42.636  0.00  0.00    +0.000 A 
ATOM     12  N   UNL     1      29.496  10.080  42.779  0.00  0.00    +0.000 NA
ATOM     13  C   UNL     1      28.958   9.587  43.907  0.00  0.00    +0.000 A 
ATOM     14  C   UNL     1      29.744   8.989  44.872  0.00  0.00    +0.000 A 
ATOM     15  N   UNL     1      27.588   9.852  44.107  0.00  0.00    +0.000 N 
ATOM     16  C   UNL     1      26.833   8.728  44.701  0.00  0.00    +0.000 C 
ATOM     17  C   UNL     1      26.412   9.067  46.133  0.00  0.00    +0.000 C 
ATOM     18  C   UNL     1      25.560   7.960  46.755  0.00  0.00    +0.000 C 
ATOM     19  C   UNL     1      25.471   8.087  48.280  0.00  0.00    +0.000 C 
ATOM     20  C   UNL     1      26.487   7.221  49.043  0.00  0.00    +0.000 C 
ATOM     21  N   UNL     1      28.548   8.655  49.383  0.00  0.00    +0.000 N 
ATOM     22  C   UNL     1      27.935   7.524  48.786  0.00  0.00    +0.000 A 
ATOM     23  N   UNL     1      28.572   6.882  47.764  0.00  0.00    +0.000 NA
ATOM     24  C   UNL     1      29.136   5.691  48.120  0.00  0.00    +0.000 A 
ATOM     25  N   UNL     1      30.439   5.343  47.837  0.00  0.00    +0.000 NA
ATOM     26  C   UNL     1      31.428   6.304  47.623  0.00  0.00    +0.000 A 
ATOM     27  H   UNL     1      31.546   7.343  45.667  0.00  0.00    +0.000 HD
ATOM     28  H   UNL     1      27.596  10.607  44.790  0.00  0.00    +0.000 HD
ATOM     29  H   UNL     1      27.950   9.463  49.341  0.00  0.00    +0.000 HD
ENDROOT
BRANCH  26  30
ATOM     30  C   UNL     1      32.678   5.577  47.041  0.00  0.00    +0.000 C 
ATOM     31  C   UNL     1      33.972   5.735  47.868  0.00  0.00    +0.000 C 
ATOM     32  C   UNL     1      34.713   4.414  48.025  0.00  0.00    +0.000 C 
ATOM     33  O   UNL     1      34.963   3.779  46.770  0.00  0.00    +0.000 OA
ATOM     34  C   UNL     1      33.794   3.613  45.961  0.00  0.00    +0.000 C 
ATOM     35  C   UNL     1      32.494   4.124  46.570  0.00  0.00    +0.000 C 
ENDBRANCH  26  30
TORSDOF 1
ENDMDL
MODEL 2
REMARK VINA RESULT:      -8.2      2.701      5.967
REMARK  Name = Molecule_03
REMARK  1 active torsions:
REMARK  status: ('A' for Active; 'I' for Inactive)
REMARK    1  A    between atoms: C_26  and  C_27
REMARK                            x       y       z     vdW  Elec       q    Type
REMARK                         _______ _______ _______ _____ _____    ______ ____
ROOT
ATOM      1  C   UNL     1      30.678   9.978  49.633  0.00  0.00    +0.000 C 
ATOM      2  C   UNL     1      30.782  11.375  49.274  0.00  0.00    +0.000 C 
ATOM      3  C   UNL     1      30.296  11.904  48.142  0.00  0.00    +0.000 C 
ATOM      4  C   UNL     1      29.354  11.253  47.259  0.00  0.00    +0.000 A 
ATOM      5  C   UNL     1      28.333  10.526  47.748  0.00  0.00    +0.000 A 
ATOM      6  C   UNL     1      28.527   9.372  48.441  0.00  0.00    +0.000 A 
ATOM      7  C   UNL     1      29.783   9.055  49.203  0.00  0.00    +0.000 C 
ATOM      8  N   UNL     1      30.149   7.680  49.274  0.00  0.00    +0.000 N 
ATOM      9  C   UNL     1      31.404   7.262  48.735  0.00  0.00    +0.000 A 
ATOM     10  N   UNL     1      32.209   6.497  49.495  0.00  0.00    +0.000 NA
ATOM     11  C   UNL     1      33.370   6.151  48.930  0.00  0.00    +0.000 A 
ATOM     12  N   UNL     1      33.817   6.491  47.713  0.00  0.00    +0.000 NA
ATOM     13  C   UNL     1      32.984   7.232  46.964  0.00  0.00    +0.000 A 
ATOM     14  C   UNL     1      31.761   7.647  47.451  0.00  0.00    +0.000 A 
ATOM     15  N   UNL     1      33.495   7.679  45.727  0.00  0.00    +0.000 N 
ATOM     16  C   UNL     1      32.513   7.657  44.622  0.00  0.00    +0.000 C 
ATOM     17  C   UNL     1      32.142   9.084  44.212  0.00  0.00    +0.000 C 
ATOM     18  C   UNL     1      31.188   9.104  43.017  0.00  0.00    +0.000 C 
ATOM     19  C   UNL     1      30.499  10.463  42.850  0.00  0.00    +0.000 C 
ATOM     20  C   UNL     1      29.103  10.543  43.491  0.00  0.00    +0.000 C 
ATOM     21  N   UNL     1      29.441  11.384  45.858  0.00  0.00    +0.000 N 
ATOM     22  C   UNL     1      29.049  10.342  44.978  0.00  0.00    +0.000 A 
ATOM     23  N   UNL     1      28.898   9.078  45.468  0.00  0.00    +0.000 NA
ATOM     24  C   UNL     1      27.598   8.688  45.613  0.00  0.00    +0.000 A 
ATOM     25  N   UNL     1      27.085   8.134  46.766  0.00  0.00    +0.000 NA
ATOM     26  C   UNL     1      27.664   8.366  48.014  0.00  0.00    +0.000 A 
ATOM     27  H   UNL     1      29.497   7.261  48.597  0.00  0.00    +0.000 HD
ATOM     28  H   UNL     1      33.724   8.653  45.911  0.00  0.00    +0.000 HD
ATOM     29  H   UNL     1      30.280  11.838  45.539  0.00  0.00    +0.000 HD
ENDROOT
BRANCH  26  30
ATOM     30  C   UNL     1      27.028   7.365  49.025  0.00  0.00    +0.000 C 
ATOM     31  C   UNL     1      26.158   8.009  50.126  0.00  0.00    +0.000 C 
ATOM     32  C   UNL     1      24.851   7.256  50.333  0.00  0.00    +0.000 C 
ATOM     33  O   UNL     1      25.059   5.862  50.572  0.00  0.00    +0.000 OA
ATOM     34  C   UNL     1      25.865   5.217  49.582  0.00  0.00    +0.000 C 
ATOM     35  C   UNL     1      26.351   6.110  48.446  0.00  0.00    +0.000 C 
ENDBRANCH  26  30
TORSDOF 1
ENDMDL
MODEL 3
REMARK VINA RESULT:      -7.7      4.237      7.172
REMARK  Name = Molecule_03
REMARK  1 active torsions:
REMARK  status: ('A' for Active; 'I' for Inactive)
REMARK    1  A    between atoms: C_26  and  C_27
REMARK                            x       y       z     vdW  Elec       q    Type
REMARK                         _______ _______ _______ _____ _____    ______ ____
ROOT
ATOM      1  C   UNL     1      25.761   8.843  45.126  0.00  0.00    +0.000 C 
ATOM      2  C   UNL     1      27.036   8.508  44.531  0.00  0.00    +0.000 C 
ATOM      3  C   UNL     1      28.194   8.449  45.205  0.00  0.00    +0.000 C 
ATOM      4  C   UNL     1      28.315   8.414  46.646  0.00  0.00    +0.000 A 
ATOM      5  C   UNL     1      27.459   7.697  47.396  0.00  0.00    +0.000 A 
ATOM      6  C   UNL     1      26.137   8.002  47.485  0.00  0.00    +0.000 A 
ATOM      7  C   UNL     1      25.377   8.743  46.422  0.00  0.00    +0.000 C 
ATOM      8  N   UNL     1      24.306   9.569  46.871  0.00  0.00    +0.000 N 
ATOM      9  C   UNL     1      24.344  10.971  46.600  0.00  0.00    +0.000 A 
ATOM     10  N   UNL     1      23.259  11.553  46.060  0.00  0.00    +0.000 NA
ATOM     11  C   UNL     1      23.369  12.865  45.826  0.00  0.00    +0.000 A 
ATOM     12  N   UNL     1      24.433  13.646  46.055  0.00  0.00    +0.000 NA
ATOM     13  C   UNL     1      25.495  13.047  46.620  0.00  0.00    +0.000 A 
ATOM     14  C   UNL     1      25.488  11.696  46.902  0.00  0.00    +0.000 A 
ATOM     15  N   UNL     1      26.651  13.843  46.764  0.00  0.00    +0.000 N 
ATOM     16  C   UNL     1      27.388  13.620  48.026  0.00  0.00    +0.000 C 
ATOM     17  C   UNL     1      28.724  12.928  47.745  0.00  0.00    +0.000 C 
ATOM     18  C   UNL     1      29.553  12.750  49.019  0.00  0.00    +0.000 C 
ATOM     19  C   UNL     1      30.679  11.727  48.837  0.00  0.00    +0.000 C 
ATOM     20  C   UNL     1      30.323  10.310  49.317  0.00  0.00    +0.000 C 
ATOM     21  N   UNL     1      29.353   9.092  47.317  0.00  0.00    +0.000 N 
ATOM     22  C   UNL     1      29.177   9.645  48.612  0.00  0.00    +0.000 A 
ATOM     23  N   UNL     1      27.912   9.825  49.092  0.00  0.00    +0.000 NA
ATOM     24  C   UNL     1      27.541   8.915  50.039  0.00  0.00    +0.000 A 
ATOM     25  N   UNL     1      26.362   8.202  50.000  0.00  0.00    +0.000 NA
ATOM     26  C   UNL     1      25.689   7.960  48.802  0.00  0.00    +0.000 A 
ATOM     27  H   UNL     1      24.458   9.563  47.889  0.00  0.00    +0.000 HD
ATOM     28  H   UNL     1      27.246  13.524  46.003  0.00  0.00    +0.000 HD
ATOM     29  H   UNL     1      29.894   9.702  46.727  0.00  0.00    +0.000 HD
ENDROOT
BRANCH  26  30
ATOM     30  C   UNL     1      24.275   7.407  49.157  0.00  0.00    +0.000 C 
ATOM     31  C   UNL     1      24.061   5.910  48.849  0.00  0.00    +0.000 C 
ATOM     32  C   UNL     1      23.359   5.187  49.992  0.00  0.00    +0.000 C 
ATOM     33  O   UNL     1      22.140   5.828  50.373  0.00  0.00    +0.000 OA
ATOM     34  C   UNL     1      22.283   7.222  50.664  0.00  0.00    +0.000 C 
ATOM     35  C   UNL     1      23.696   7.780  50.533  0.00  0.00    +0.000 C 
ENDBRANCH  26  30
TORSDOF 1
ENDMDL
MODEL 4
REMARK VINA RESULT:      -7.5      5.250      9.470
REMARK  Name = Molecule_03
REMARK  1 active torsions:
REMARK  status: ('A' for Active; 'I' for Inactive)
REMARK    1  A    between atoms: C_26  and  C_27
REMARK                            x       y       z     vdW  Elec       q    Type
REMARK                         _______ _______ _______ _____ _____    ______ ____
ROOT
ATOM      1  C   UNL     1      21.969   6.404  49.796  0.00  0.00    +0.000 C 
ATOM      2  C   UNL     1      21.890   7.751  50.317  0.00  0.00    +0.000 C 
ATOM      3  C   UNL     1      22.325   8.841  49.667  0.00  0.00    +0.000 C 
ATOM      4  C   UNL     1      22.658   8.891  48.260  0.00  0.00    +0.000 A 
ATOM      5  C   UNL     1      21.916   8.237  47.348  0.00  0.00    +0.000 A 
ATOM      6  C   UNL     1      21.836   6.881  47.312  0.00  0.00    +0.000 A 
ATOM      7  C   UNL     1      22.062   5.997  48.506  0.00  0.00    +0.000 C 
ATOM      8  N   UNL     1      22.622   4.713  48.246  0.00  0.00    +0.000 N 
ATOM      9  C   UNL     1      23.874   4.363  48.839  0.00  0.00    +0.000 A 
ATOM     10  N   UNL     1      23.976   3.187  49.482  0.00  0.00    +0.000 NA
ATOM     11  C   UNL     1      25.172   2.930  50.019  0.00  0.00    +0.000 A 
ATOM     12  N   UNL     1      26.259   3.714  49.998  0.00  0.00    +0.000 NA
ATOM     13  C   UNL     1      26.141   4.871  49.325  0.00  0.00    +0.000 A 
ATOM     14  C   UNL     1      24.948   5.235  48.735  0.00  0.00    +0.000 A 
ATOM     15  N   UNL     1      27.248   5.742  49.391  0.00  0.00    +0.000 N 
ATOM     16  C   UNL     1      27.543   6.445  48.125  0.00  0.00    +0.000 C 
ATOM     17  C   UNL     1      27.224   7.936  48.258  0.00  0.00    +0.000 C 
ATOM     18  C   UNL     1      27.590   8.713  46.992  0.00  0.00    +0.000 C 
ATOM     19  C   UNL     1      26.924  10.092  46.947  0.00  0.00    +0.000 C 
ATOM     20  C   UNL     1      25.614  10.131  46.142  0.00  0.00    +0.000 C 
ATOM     21  N   UNL     1      23.743   9.655  47.784  0.00  0.00    +0.000 N 
ATOM     22  C   UNL     1      24.502   9.261  46.652  0.00  0.00    +0.000 A 
ATOM     23  N   UNL     1      24.414   7.974  46.207  0.00  0.00    +0.000 NA
ATOM     24  C   UNL     1      23.678   7.829  45.067  0.00  0.00    +0.000 A 
ATOM     25  N   UNL     1      22.665   6.906  44.918  0.00  0.00    +0.000 NA
ATOM     26  C   UNL     1      21.970   6.394  46.014  0.00  0.00    +0.000 A 
ATOM     27  H   UNL     1      22.894   4.806  47.258  0.00  0.00    +0.000 HD
ATOM     28  H   UNL     1      26.949   6.443  50.066  0.00  0.00    +0.000 HD
ATOM     29  H   UNL     1      24.331  10.030  48.509  0.00  0.00    +0.000 HD
ENDROOT
BRANCH  26  30
ATOM     30  C   UNL     1      21.128   5.180  45.516  0.00  0.00    +0.000 C 
ATOM     31  C   UNL     1      19.699   5.092  46.094  0.00  0.00    +0.000 C 
ATOM     32  C   UNL     1      18.669   4.767  45.021  0.00  0.00    +0.000 C 
ATOM     33  O   UNL     1      19.010   3.597  44.277  0.00  0.00    +0.000 OA
ATOM     34  C   UNL     1      20.329   3.625  43.723  0.00  0.00    +0.000 C 
ATOM     35  C   UNL     1      21.134   4.888  44.005  0.00  0.00    +0.000 C 
ENDBRANCH  26  30
TORSDOF 1
ENDMDL
MODEL 5
REMARK VINA RESULT:      -7.2      2.949      6.380
REMARK  Name = Molecule_03
REMARK  1 active torsions:
REMARK  status: ('A' for Active; 'I' for Inactive)
REMARK    1  A    between atoms: C_26  and  C_27
REMARK                            x       y       z     vdW  Elec       q    Type
REMARK                         _______ _______ _______ _____ _____    ______ ____
ROOT
ATOM      1  C   UNL     1      32.816  10.564  47.054  0.00  0.00    +0.000 C 
ATOM      2  C   UNL     1      34.133  10.166  47.501  0.00  0.00    +0.000 C 
ATOM      3  C   UNL     1      34.762   9.050  47.104  0.00  0.00    +0.000 C 
ATOM      4  C   UNL     1      34.375   8.236  45.973  0.00  0.00    +0.000 A 
ATOM      5  C   UNL     1      33.947   8.799  44.828  0.00  0.00    +0.000 A 
ATOM      6  C   UNL     1      32.789   9.507  44.753  0.00  0.00    +0.000 A 
ATOM      7  C   UNL     1      32.159  10.206  45.924  0.00  0.00    +0.000 C 
ATOM      8  N   UNL     1      30.736  10.290  45.920  0.00  0.00    +0.000 N 
ATOM      9  C   UNL     1      29.997   9.693  46.986  0.00  0.00    +0.000 A 
ATOM     10  N   UNL     1      29.054  10.425  47.605  0.00  0.00    +0.000 NA
ATOM     11  C   UNL     1      28.409   9.806  48.599  0.00  0.00    +0.000 A 
ATOM     12  N   UNL     1      28.609   8.558  49.046  0.00  0.00    +0.000 NA
ATOM     13  C   UNL     1      29.537   7.838  48.394  0.00  0.00    +0.000 A 
ATOM     14  C   UNL     1      30.263   8.382  47.354  0.00  0.00    +0.000 A 
ATOM     15  N   UNL     1      29.822   6.565  48.930  0.00  0.00    +0.000 N 
ATOM     16  C   UNL     1      30.050   5.516  47.913  0.00  0.00    +0.000 C 
ATOM     17  C   UNL     1      31.521   5.093  47.907  0.00  0.00    +0.000 C 
ATOM     18  C   UNL     1      31.782   3.953  46.922  0.00  0.00    +0.000 C 
ATOM     19  C   UNL     1      33.273   3.792  46.606  0.00  0.00    +0.000 C 
ATOM     20  C   UNL     1      33.724   4.506  45.321  0.00  0.00    +0.000 C 
ATOM     21  N   UNL     1      34.467   6.830  46.008  0.00  0.00    +0.000 N 
ATOM     22  C   UNL     1      33.558   5.998  45.304  0.00  0.00    +0.000 A 
ATOM     23  N   UNL     1      32.382   6.526  44.856  0.00  0.00    +0.000 NA
ATOM     24  C   UNL     1      32.350   6.752  43.510  0.00  0.00    +0.000 A 
ATOM     25  N   UNL     1      31.962   7.944  42.939  0.00  0.00    +0.000 NA
ATOM     26  C   UNL     1      32.043   9.153  43.632  0.00  0.00    +0.000 A 
ATOM     27  H   UNL     1      30.498   9.660  45.141  0.00  0.00    +0.000 HD
ATOM     28  H   UNL     1      30.703   6.713  49.418  0.00  0.00    +0.000 HD
ATOM     29  H   UNL     1      34.681   6.454  46.917  0.00  0.00    +0.000 HD
ENDROOT
BRANCH  26  30
ATOM     30  C   UNL     1      31.254  10.221  42.816  0.00  0.00    +0.000 C 
ATOM     31  C   UNL     1      31.988  11.563  42.612  0.00  0.00    +0.000 C 
ATOM     32  C   UNL     1      31.872  12.065  41.179  0.00  0.00    +0.000 C 
ATOM     33  O   UNL     1      30.516  12.131  40.734  0.00  0.00    +0.000 OA
ATOM     34  C   UNL     1      29.788  10.912  40.907  0.00  0.00    +0.000 C 
ATOM     35  C   UNL     1      30.574   9.757  41.516  0.00  0.00    +0.000 C 
ENDBRANCH  26  30
TORSDOF 1
ENDMDL
MODEL 6
REMARK VINA RESULT:      -7.2      2.916      6.833
REMARK  Name = Molecule_03
REMARK  1 active torsions:
REMARK  status: ('A' for Active; 'I' for Inactive)
REMARK    1  A    between atoms: C_26  and  C_27
REMARK                            x       y       z     vdW  Elec       q    Type
REMARK                         _______ _______ _______ _____ _____    ______ ____
ROOT
ATOM      1  C   UNL     1      27.794  10.492  48.526  0.00  0.00    +0.000 C 
ATOM      2  C   UNL     1      28.875  11.124  49.250  0.00  0.00    +0.000 C 
ATOM      3  C   UNL     1      30.162  11.085  48.875  0.00  0.00    +0.000 C 
ATOM      4  C   UNL     1      30.635  10.677  47.571  0.00  0.00    +0.000 A 
ATOM      5  C   UNL     1      29.976  11.031  46.453  0.00  0.00    +0.000 A 
ATOM      6  C   UNL     1      28.724  10.582  46.172  0.00  0.00    +0.000 A 
ATOM      7  C   UNL     1      27.740  10.139  47.218  0.00  0.00    +0.000 C 
ATOM      8  N   UNL     1      26.831   9.110  46.837  0.00  0.00    +0.000 N 
ATOM      9  C   UNL     1      26.831   7.876  47.555  0.00  0.00    +0.000 A 
ATOM     10  N   UNL     1      25.659   7.387  47.996  0.00  0.00    +0.000 NA
ATOM     11  C   UNL     1      25.735   6.234  48.668  0.00  0.00    +0.000 A 
ATOM     12  N   UNL     1      26.839   5.532  48.957  0.00  0.00    +0.000 NA
ATOM     13  C   UNL     1      27.995   6.026  48.482  0.00  0.00    +0.000 A 
ATOM     14  C   UNL     1      28.029   7.212  47.777  0.00  0.00    +0.000 A 
ATOM     15  N   UNL     1      29.167   5.347  48.875  0.00  0.00    +0.000 N 
ATOM     16  C   UNL     1      30.188   5.235  47.812  0.00  0.00    +0.000 C 
ATOM     17  C   UNL     1      31.399   6.111  48.145  0.00  0.00    +0.000 C 
ATOM     18  C   UNL     1      32.512   5.962  47.107  0.00  0.00    +0.000 C 
ATOM     19  C   UNL     1      33.537   7.098  47.191  0.00  0.00    +0.000 C 
ATOM     20  C   UNL     1      33.281   8.249  46.204  0.00  0.00    +0.000 C 
ATOM     21  N   UNL     1      31.821   9.930  47.415  0.00  0.00    +0.000 N 
ATOM     22  C   UNL     1      31.982   8.983  46.370  0.00  0.00    +0.000 A 
ATOM     23  N   UNL     1      30.880   8.534  45.703  0.00  0.00    +0.000 NA
ATOM     24  C   UNL     1      30.735   9.057  44.451  0.00  0.00    +0.000 A 
ATOM     25  N   UNL     1      29.568   9.623  43.984  0.00  0.00    +0.000 NA
ATOM     26  C   UNL     1      28.615  10.161  44.849  0.00  0.00    +0.000 A 
ATOM     27  H   UNL     1      27.230   8.811  45.936  0.00  0.00    +0.000 HD
ATOM     28  H   UNL     1      29.548   5.948  49.602  0.00  0.00    +0.000 HD
ATOM     29  H   UNL     1      32.212   9.594  48.279  0.00  0.00    +0.000 HD
ENDROOT
BRANCH  26  30
ATOM     30  C   UNL     1      27.321  10.428  44.021  0.00  0.00    +0.000 C 
ATOM     31  C   UNL     1      27.444  11.538  42.955  0.00  0.00    +0.000 C 
ATOM     32  C   UNL     1      26.819  11.125  41.628  0.00  0.00    +0.000 C 
ATOM     33  O   UNL     1      25.469  10.683  41.778  0.00  0.00    +0.000 OA
ATOM     34  C   UNL     1      25.299   9.657  42.761  0.00  0.00    +0.000 C 
ATOM     35  C   UNL     1      26.573   9.204  43.465  0.00  0.00    +0.000 C 
ENDBRANCH  26  30
TORSDOF 1
ENDMDL
MODEL 7
REMARK VINA RESULT:      -7.1      5.861      9.816
REMARK  Name = Molecule_03
REMARK  1 active torsions:
REMARK  status: ('A' for Active; 'I' for Inactive)
REMARK    1  A    between atoms: C_26  and  C_27
REMARK                            x       y       z     vdW  Elec       q    Type
REMARK                         _______ _______ _______ _____ _____    ______ ____
ROOT
ATOM      1  C   UNL     1      22.111   7.574  45.372  0.00  0.00    +0.000 C 
ATOM      2  C   UNL     1      22.149   6.253  44.784  0.00  0.00    +0.000 C 
ATOM      3  C   UNL     1      22.249   5.114  45.486  0.00  0.00    +0.000 C 
ATOM      4  C   UNL     1      22.041   4.997  46.912  0.00  0.00    +0.000 A 
ATOM      5  C   UNL     1      21.057   5.677  47.528  0.00  0.00    +0.000 A 
ATOM      6  C   UNL     1      21.051   7.035  47.608  0.00  0.00    +0.000 A 
ATOM      7  C   UNL     1      21.750   7.934  46.628  0.00  0.00    +0.000 C 
ATOM      8  N   UNL     1      22.252   9.163  47.145  0.00  0.00    +0.000 N 
ATOM      9  C   UNL     1      23.653   9.434  47.067  0.00  0.00    +0.000 A 
ATOM     10  N   UNL     1      24.054  10.618  46.571  0.00  0.00    +0.000 NA
ATOM     11  C   UNL     1      25.377  10.799  46.520  0.00  0.00    +0.000 A 
ATOM     12  N   UNL     1      26.331   9.935  46.891  0.00  0.00    +0.000 NA
ATOM     13  C   UNL     1      25.906   8.770  47.409  0.00  0.00    +0.000 A 
ATOM     14  C   UNL     1      24.560   8.480  47.505  0.00  0.00    +0.000 A 
ATOM     15  N   UNL     1      26.906   7.820  47.701  0.00  0.00    +0.000 N 
ATOM     16  C   UNL     1      26.675   7.059  48.947  0.00  0.00    +0.000 C 
ATOM     17  C   UNL     1      26.338   5.601  48.625  0.00  0.00    +0.000 C 
ATOM     18  C   UNL     1      26.169   4.761  49.892  0.00  0.00    +0.000 C 
ATOM     19  C   UNL     1      25.451   3.436  49.615  0.00  0.00    +0.000 C 
ATOM     20  C   UNL     1      23.937   3.472  49.886  0.00  0.00    +0.000 C 
ATOM     21  N   UNL     1      22.828   4.138  47.706  0.00  0.00    +0.000 N 
ATOM     22  C   UNL     1      23.143   4.440  49.057  0.00  0.00    +0.000 A 
ATOM     23  N   UNL     1      22.975   5.715  49.511  0.00  0.00    +0.000 NA
ATOM     24  C   UNL     1      21.883   5.882  50.312  0.00  0.00    +0.000 A 
ATOM     25  N   UNL     1      20.943   6.874  50.135  0.00  0.00    +0.000 NA
ATOM     26  C   UNL     1      20.729   7.470  48.891  0.00  0.00    +0.000 A 
ATOM     27  H   UNL     1      22.138   9.020  48.158  0.00  0.00    +0.000 HD
ATOM     28  H   UNL     1      26.833   7.164  46.926  0.00  0.00    +0.000 HD
ATOM     29  H   UNL     1      23.618   3.742  47.224  0.00  0.00    +0.000 HD
ENDROOT
BRANCH  26  30
ATOM     30  C   UNL     1      19.838   8.729  49.116  0.00  0.00    +0.000 C 
ATOM     31  C   UNL     1      20.597   9.997  49.566  0.00  0.00    +0.000 C 
ATOM     32  C   UNL     1      20.138  11.235  48.806  0.00  0.00    +0.000 C 
ATOM     33  O   UNL     1      18.723  11.417  48.869  0.00  0.00    +0.000 OA
ATOM     34  C   UNL     1      17.971  10.267  48.467  0.00  0.00    +0.000 C 
ATOM     35  C   UNL     1      18.796   9.061  48.034  0.00  0.00    +0.000 C 
ENDBRANCH  26  30
TORSDOF 1
ENDMDL
MODEL 8
REMARK VINA RESULT:      -7.0      6.376     10.231
REMARK  Name = Molecule_03
REMARK  1 active torsions:
REMARK  status: ('A' for Active; 'I' for Inactive)
REMARK    1  A    between atoms: C_26  and  C_27
REMARK                            x       y       z     vdW  Elec       q    Type
REMARK                         _______ _______ _______ _____ _____    ______ ____
ROOT
ATOM      1  C   UNL     1      20.102   8.369  49.510  0.00  0.00    +0.000 C 
ATOM      2  C   UNL     1      20.069   9.810  49.620  0.00  0.00    +0.000 C 
ATOM      3  C   UNL     1      20.894  10.638  48.961  0.00  0.00    +0.000 C 
ATOM      4  C   UNL     1      21.726  10.263  47.840  0.00  0.00    +0.000 A 
ATOM      5  C   UNL     1      21.273   9.424  46.890  0.00  0.00    +0.000 A 
ATOM      6  C   UNL     1      20.981   8.122  47.148  0.00  0.00    +0.000 A 
ATOM      7  C   UNL     1      20.594   7.604  48.505  0.00  0.00    +0.000 C 
ATOM      8  N   UNL     1      20.981   6.267  48.805  0.00  0.00    +0.000 N 
ATOM      9  C   UNL     1      21.846   6.022  49.916  0.00  0.00    +0.000 A 
ATOM     10  N   UNL     1      21.499   5.075  50.806  0.00  0.00    +0.000 NA
ATOM     11  C   UNL     1      22.349   4.906  51.823  0.00  0.00    +0.000 A 
ATOM     12  N   UNL     1      23.485   5.580  52.055  0.00  0.00    +0.000 NA
ATOM     13  C   UNL     1      23.823   6.501  51.138  0.00  0.00    +0.000 A 
ATOM     14  C   UNL     1      23.015   6.757  50.049  0.00  0.00    +0.000 A 
ATOM     15  N   UNL     1      24.960   7.282  51.435  0.00  0.00    +0.000 N 
ATOM     16  C   UNL     1      25.818   7.573  50.267  0.00  0.00    +0.000 C 
ATOM     17  C   UNL     1      25.733   9.057  49.902  0.00  0.00    +0.000 C 
ATOM     18  C   UNL     1      26.669   9.414  48.746  0.00  0.00    +0.000 C 
ATOM     19  C   UNL     1      26.314  10.763  48.110  0.00  0.00    +0.000 C 
ATOM     20  C   UNL     1      25.421  10.654  46.862  0.00  0.00    +0.000 C 
ATOM     21  N   UNL     1      23.024  10.788  47.674  0.00  0.00    +0.000 N 
ATOM     22  C   UNL     1      24.068  10.039  47.072  0.00  0.00    +0.000 A 
ATOM     23  N   UNL     1      23.931   8.687  46.949  0.00  0.00    +0.000 NA
ATOM     24  C   UNL     1      23.655   8.269  45.679  0.00  0.00    +0.000 A 
ATOM     25  N   UNL     1      22.627   7.408  45.359  0.00  0.00    +0.000 NA
ATOM     26  C   UNL     1      21.499   7.277  46.170  0.00  0.00    +0.000 A 
ATOM     27  H   UNL     1      21.611   6.056  48.019  0.00  0.00    +0.000 HD
ATOM     28  H   UNL     1      24.557   8.165  51.745  0.00  0.00    +0.000 HD
ATOM     29  H   UNL     1      23.358  11.316  48.463  0.00  0.00    +0.000 HD
ENDROOT
BRANCH  26  30
ATOM     30  C   UNL     1      20.706   6.028  45.680  0.00  0.00    +0.000 C 
ATOM     31  C   UNL     1      19.254   6.307  45.235  0.00  0.00    +0.000 C 
ATOM     32  C   UNL     1      18.912   5.598  43.931  0.00  0.00    +0.000 C 
ATOM     33  O   UNL     1      19.188   4.198  43.984  0.00  0.00    +0.000 OA
ATOM     34  C   UNL     1      20.522   3.884  44.398  0.00  0.00    +0.000 C 
ATOM     35  C   UNL     1      21.416   5.082  44.696  0.00  0.00    +0.000 C 
ENDBRANCH  26  30
TORSDOF 1
ENDMDL
MODEL 9
REMARK VINA RESULT:      -6.9      2.204      2.962
REMARK  Name = Molecule_03
REMARK  1 active torsions:
REMARK  status: ('A' for Active; 'I' for Inactive)
REMARK    1  A    between atoms: C_26  and  C_27
REMARK                            x       y       z     vdW  Elec       q    Type
REMARK                         _______ _______ _______ _____ _____    ______ ____
ROOT
ATOM      1  C   UNL     1      31.112  11.714  47.921  0.00  0.00    +0.000 C 
ATOM      2  C   UNL     1      30.460  12.666  48.792  0.00  0.00    +0.000 C 
ATOM      3  C   UNL     1      29.171  12.597  49.157  0.00  0.00    +0.000 C 
ATOM      4  C   UNL     1      28.321  11.439  48.994  0.00  0.00    +0.000 A 
ATOM      5  C   UNL     1      28.792  10.198  49.213  0.00  0.00    +0.000 A 
ATOM      6  C   UNL     1      29.757   9.638  48.436  0.00  0.00    +0.000 A 
ATOM      7  C   UNL     1      30.768  10.430  47.656  0.00  0.00    +0.000 C 
ATOM      8  N   UNL     1      31.218   9.852  46.434  0.00  0.00    +0.000 N 
ATOM      9  C   UNL     1      31.005  10.555  45.208  0.00  0.00    +0.000 A 
ATOM     10  N   UNL     1      32.044  10.715  44.369  0.00  0.00    +0.000 NA
ATOM     11  C   UNL     1      31.774  11.390  43.247  0.00  0.00    +0.000 A 
ATOM     12  N   UNL     1      30.602  11.927  42.882  0.00  0.00    +0.000 NA
ATOM     13  C   UNL     1      29.574  11.730  43.724  0.00  0.00    +0.000 A 
ATOM     14  C   UNL     1      29.743  11.049  44.912  0.00  0.00    +0.000 A 
ATOM     15  N   UNL     1      28.369  12.384  43.393  0.00  0.00    +0.000 N 
ATOM     16  C   UNL     1      27.153  11.586  43.657  0.00  0.00    +0.000 C 
ATOM     17  C   UNL     1      26.366  12.186  44.825  0.00  0.00    +0.000 C 
ATOM     18  C   UNL     1      25.059  11.433  45.079  0.00  0.00    +0.000 C 
ATOM     19  C   UNL     1      24.469  11.748  46.457  0.00  0.00    +0.000 C 
ATOM     20  C   UNL     1      24.835  10.725  47.546  0.00  0.00    +0.000 C 
ATOM     21  N   UNL     1      26.962  11.562  48.640  0.00  0.00    +0.000 N 
ATOM     22  C   UNL     1      26.297  10.585  47.854  0.00  0.00    +0.000 A 
ATOM     23  N   UNL     1      27.038   9.683  47.147  0.00  0.00    +0.000 NA
ATOM     24  C   UNL     1      27.053   8.430  47.687  0.00  0.00    +0.000 A 
ATOM     25  N   UNL     1      28.203   7.705  47.915  0.00  0.00    +0.000 NA
ATOM     26  C   UNL     1      29.441   8.326  48.091  0.00  0.00    +0.000 A 
ATOM     27  H   UNL     1      30.559   9.068  46.325  0.00  0.00    +0.000 HD
ATOM     28  H   UNL     1      28.356  13.178  44.030  0.00  0.00    +0.000 HD
ATOM     29  H   UNL     1      26.689  12.494  48.377  0.00  0.00    +0.000 HD
ENDROOT
BRANCH  26  30
ATOM     30  C   UNL     1      30.538   7.222  48.022  0.00  0.00    +0.000 C 
ATOM     31  C   UNL     1      31.604   7.285  49.138  0.00  0.00    +0.000 C 
ATOM     32  C   UNL     1      31.895   5.912  49.727  0.00  0.00    +0.000 C 
ATOM     33  O   UNL     1      32.236   4.952  48.726  0.00  0.00    +0.000 OA
ATOM     34  C   UNL     1      31.283   4.857  47.663  0.00  0.00    +0.000 C 
ATOM     35  C   UNL     1      30.071   5.775  47.782  0.00  0.00    +0.000 C 
ENDBRANCH  26  30
TORSDOF 1
ENDMDL
