MODEL 1
REMARK VINA RESULT:      -7.7      0.000      0.000
REMARK  Name = Molecule_17
REMARK  2 active torsions:
REMARK  status: ('A' for Active; 'I' for Inactive)
REMARK    1  A    between atoms: C_4  and  N_5
REMARK    2  A    between atoms: C_10  and  C_11
REMARK                            x       y       z     vdW  Elec       q    Type
REMARK                         _______ _______ _______ _____ _____    ______ ____
ROOT
ATOM      1  N   UNL     1      31.469   6.007  47.481  0.00  0.00    +0.000 N 
ATOM      2  C   UNL     1      30.202   6.503  47.776  0.00  0.00    +0.000 A 
ATOM      3  N   UNL     1      30.082   7.836  47.683  0.00  0.00    +0.000 NA
ATOM      4  C   UNL     1      28.880   8.364  47.969  0.00  0.00    +0.000 A 
ATOM      5  C   UNL     1      27.792   7.617  48.344  0.00  0.00    +0.000 A 
ATOM      6  C   UNL     1      27.992   6.255  48.418  0.00  0.00    +0.000 A 
ATOM      7  N   UNL     1      29.193   5.701  48.141  0.00  0.00    +0.000 NA
ATOM      8  H   UNL     1      32.071   6.781  47.239  0.00  0.00    +0.000 HD
ENDROOT
BRANCH   1  12
ATOM      9  C   UNL     1      33.175   2.153  47.234  0.00  0.00    +0.000 A 
ATOM     10  C   UNL     1      31.953   2.400  46.617  0.00  0.00    +0.000 A 
ATOM     11  C   UNL     1      31.374   3.673  46.684  0.00  0.00    +0.000 A 
ATOM     12  C   UNL     1      32.006   4.722  47.358  0.00  0.00    +0.000 A 
ATOM     13  C   UNL     1      33.236   4.448  47.981  0.00  0.00    +0.000 A 
ATOM     14  C   UNL     1      33.818   3.177  47.918  0.00  0.00    +0.000 A 
ENDBRANCH   1  12
BRANCH   6  15
ATOM     15  C   UNL     1      26.929   5.307  48.815  0.00  0.00    +0.000 A 
ATOM     16  C   UNL     1      27.211   3.985  49.204  0.00  0.00    +0.000 A 
ATOM     17  C   UNL     1      26.190   3.100  49.570  0.00  0.00    +0.000 A 
ATOM     18  C   UNL     1      24.863   3.521  49.558  0.00  0.00    +0.000 A 
ATOM     19  C   UNL     1      24.556   4.825  49.185  0.00  0.00    +0.000 A 
ATOM     20  C   UNL     1      25.578   5.707  48.820  0.00  0.00    +0.000 A 
ENDBRANCH   6  15
TORSDOF 2
ENDMDL
MODEL 2
REMARK VINA RESULT:      -7.5      0.846      6.045
REMARK  Name = Molecule_17
REMARK  2 active torsions:
REMARK  status: ('A' for Active; 'I' for Inactive)
REMARK    1  A    between atoms: C_4  and  N_5
REMARK    2  A    between atoms: C_10  and  C_11
REMARK                            x       y       z     vdW  Elec       q    Type
REMARK                         _______ _______ _______ _____ _____    ______ ____
ROOT
ATOM      1  N   UNL     1      27.654   6.657  48.718  0.00  0.00    +0.000 N 
ATOM      2  C   UNL     1      28.996   6.784  48.375  0.00  0.00    +0.000 A 
ATOM      3  N   UNL     1      29.443   8.047  48.303  0.00  0.00    +0.000 NA
ATOM      4  C   UNL     1      30.731   8.223  47.963  0.00  0.00    +0.000 A 
ATOM      5  C   UNL     1      31.593   7.190  47.694  0.00  0.00    +0.000 A 
ATOM      6  C   UNL     1      31.063   5.921  47.787  0.00  0.00    +0.000 A 
ATOM      7  N   UNL     1      29.768   5.719  48.121  0.00  0.00    +0.000 NA
ATOM      8  H   UNL     1      27.266   7.578  48.857  0.00  0.00    +0.000 HD
ENDROOT
BRANCH   1  12
ATOM      9  C   UNL     1      25.022   3.444  49.483  0.00  0.00    +0.000 A 
ATOM     10  C   UNL     1      26.395   3.222  49.504  0.00  0.00    +0.000 A 
ATOM     11  C   UNL     1      27.283   4.277  49.258  0.00  0.00    +0.000 A 
ATOM     12  C   UNL     1      26.819   5.569  48.995  0.00  0.00    +0.000 A 
ATOM     13  C   UNL     1      25.429   5.768  48.970  0.00  0.00    +0.000 A 
ATOM     14  C   UNL     1      24.537   4.718  49.214  0.00  0.00    +0.000 A 
ENDBRANCH   1  12
BRANCH   6  15
ATOM     15  C   UNL     1      31.850   4.698  47.520  0.00  0.00    +0.000 A 
ATOM     16  C   UNL     1      31.309   3.591  46.841  0.00  0.00    +0.000 A 
ATOM     17  C   UNL     1      32.069   2.440  46.603  0.00  0.00    +0.000 A 
ATOM     18  C   UNL     1      33.390   2.373  47.038  0.00  0.00    +0.000 A 
ATOM     19  C   UNL     1      33.953   3.456  47.704  0.00  0.00    +0.000 A 
ATOM     20  C   UNL     1      33.191   4.605  47.941  0.00  0.00    +0.000 A 
ENDBRANCH   6  15
TORSDOF 2
ENDMDL
MODEL 3
REMARK VINA RESULT:      -7.2      2.329      6.350
REMARK  Name = Molecule_17
REMARK  2 active torsions:
REMARK  status: ('A' for Active; 'I' for Inactive)
REMARK    1  A    between atoms: C_4  and  N_5
REMARK    2  A    between atoms: C_10  and  C_11
REMARK                            x       y       z     vdW  Elec       q    Type
REMARK                         _______ _______ _______ _____ _____    ______ ____
ROOT
ATOM      1  N   UNL     1      28.859   5.235  48.682  0.00  0.00    +0.000 N 
ATOM      2  C   UNL     1      29.780   6.272  48.562  0.00  0.00    +0.000 A 
ATOM      3  N   UNL     1      31.046   5.880  48.349  0.00  0.00    +0.000 NA
ATOM      4  C   UNL     1      31.975   6.844  48.237  0.00  0.00    +0.000 A 
ATOM      5  C   UNL     1      31.693   8.184  48.328  0.00  0.00    +0.000 A 
ATOM      6  C   UNL     1      30.372   8.510  48.548  0.00  0.00    +0.000 A 
ATOM      7  N   UNL     1      29.421   7.557  48.670  0.00  0.00    +0.000 NA
ATOM      8  H   UNL     1      29.344   4.356  48.575  0.00  0.00    +0.000 HD
ENDROOT
BRANCH   1  12
ATOM      9  C   UNL     1      24.673   4.960  49.161  0.00  0.00    +0.000 A 
ATOM     10  C   UNL     1      25.227   6.133  48.660  0.00  0.00    +0.000 A 
ATOM     11  C   UNL     1      26.613   6.241  48.490  0.00  0.00    +0.000 A 
ATOM     12  C   UNL     1      27.467   5.180  48.807  0.00  0.00    +0.000 A 
ATOM     13  C   UNL     1      26.886   4.008  49.319  0.00  0.00    +0.000 A 
ATOM     14  C   UNL     1      25.503   3.895  49.492  0.00  0.00    +0.000 A 
ENDBRANCH   1  12
BRANCH   6  15
ATOM     15  C   UNL     1      29.899   9.904  48.680  0.00  0.00    +0.000 A 
ATOM     16  C   UNL     1      28.535  10.242  48.614  0.00  0.00    +0.000 A 
ATOM     17  C   UNL     1      28.107  11.569  48.735  0.00  0.00    +0.000 A 
ATOM     18  C   UNL     1      29.036  12.588  48.928  0.00  0.00    +0.000 A 
ATOM     19  C   UNL     1      30.390  12.281  49.005  0.00  0.00    +0.000 A 
ATOM     20  C   UNL     1      30.815  10.955  48.884  0.00  0.00    +0.000 A 
ENDBRANCH   6  15
TORSDOF 2
ENDMDL
MODEL 4
REMARK VINA RESULT:      -6.8      4.776      9.281
REMARK  Name = Molecule_17
REMARK  2 active torsions:
REMARK  status: ('A' for Active; 'I' for Inactive)
REMARK    1  A    between atoms: C_4  and  N_5
REMARK    2  A    between atoms: C_10  and  C_11
REMARK                            x       y       z     vdW  Elec       q    Type
REMARK                         _______ _______ _______ _____ _____    ______ ____
ROOT
ATOM      1  N   UNL     1      20.716   6.443  50.526  0.00  0.00    +0.000 N 
ATOM      2  C   UNL     1      21.814   5.654  50.855  0.00  0.00    +0.000 A 
ATOM      3  N   UNL     1      21.602   4.780  51.851  0.00  0.00    +0.000 NA
ATOM      4  C   UNL     1      22.636   4.003  52.214  0.00  0.00    +0.000 A 
ATOM      5  C   UNL     1      23.873   4.060  51.623  0.00  0.00    +0.000 A 
ATOM      6  C   UNL     1      24.016   4.982  50.609  0.00  0.00    +0.000 A 
ATOM      7  N   UNL     1      22.992   5.779  50.230  0.00  0.00    +0.000 NA
ATOM      8  H   UNL     1      19.943   6.188  51.122  0.00  0.00    +0.000 HD
ENDROOT
BRANCH   1  12
ATOM      9  C   UNL     1      19.840   9.193  47.443  0.00  0.00    +0.000 A 
ATOM     10  C   UNL     1      20.438   9.647  48.614  0.00  0.00    +0.000 A 
ATOM     11  C   UNL     1      20.741   8.749  49.645  0.00  0.00    +0.000 A 
ATOM     12  C   UNL     1      20.461   7.385  49.523  0.00  0.00    +0.000 A 
ATOM     13  C   UNL     1      19.849   6.950  48.336  0.00  0.00    +0.000 A 
ATOM     14  C   UNL     1      19.543   7.842  47.303  0.00  0.00    +0.000 A 
ENDBRANCH   1  12
BRANCH   6  15
ATOM     15  C   UNL     1      25.283   5.179  49.874  0.00  0.00    +0.000 A 
ATOM     16  C   UNL     1      26.162   4.116  49.597  0.00  0.00    +0.000 A 
ATOM     17  C   UNL     1      27.361   4.323  48.905  0.00  0.00    +0.000 A 
ATOM     18  C   UNL     1      27.705   5.600  48.471  0.00  0.00    +0.000 A 
ATOM     19  C   UNL     1      26.850   6.668  48.723  0.00  0.00    +0.000 A 
ATOM     20  C   UNL     1      25.654   6.458  49.415  0.00  0.00    +0.000 A 
ENDBRANCH   6  15
TORSDOF 2
ENDMDL
MODEL 5
REMARK VINA RESULT:      -6.7      3.386      8.113
REMARK  Name = Molecule_17
REMARK  2 active torsions:
REMARK  status: ('A' for Active; 'I' for Inactive)
REMARK    1  A    between atoms: C_4  and  N_5
REMARK    2  A    between atoms: C_10  and  C_11
REMARK                            x       y       z     vdW  Elec       q    Type
REMARK                         _______ _______ _______ _____ _____    ______ ____
ROOT
ATOM      1  N   UNL     1      22.828   5.052  49.791  0.00  0.00    +0.000 N 
ATOM      2  C   UNL     1      24.145   4.619  49.672  0.00  0.00    +0.000 A 
ATOM      3  N   UNL     1      24.379   3.385  50.145  0.00  0.00    +0.000 NA
ATOM      4  C   UNL     1      25.639   2.926  50.063  0.00  0.00    +0.000 A 
ATOM      5  C   UNL     1      26.676   3.646  49.525  0.00  0.00    +0.000 A 
ATOM      6  C   UNL     1      26.360   4.905  49.060  0.00  0.00    +0.000 A 
ATOM      7  N   UNL     1      25.101   5.391  49.138  0.00  0.00    +0.000 NA
ATOM      8  H   UNL     1      22.284   4.320  50.224  0.00  0.00    +0.000 HD
ENDROOT
BRANCH   1  12
ATOM      9  C   UNL     1      20.794   8.557  48.605  0.00  0.00    +0.000 A 
ATOM     10  C   UNL     1      21.018   7.549  47.673  0.00  0.00    +0.000 A 
ATOM     11  C   UNL     1      21.687   6.377  48.050  0.00  0.00    +0.000 A 
ATOM     12  C   UNL     1      22.134   6.187  49.361  0.00  0.00    +0.000 A 
ATOM     13  C   UNL     1      21.904   7.222  50.282  0.00  0.00    +0.000 A 
ATOM     14  C   UNL     1      21.238   8.395  49.912  0.00  0.00    +0.000 A 
ENDBRANCH   1  12
BRANCH   6  15
ATOM     15  C   UNL     1      27.359   5.814  48.461  0.00  0.00    +0.000 A 
ATOM     16  C   UNL     1      28.713   5.457  48.328  0.00  0.00    +0.000 A 
ATOM     17  C   UNL     1      29.646   6.335  47.763  0.00  0.00    +0.000 A 
ATOM     18  C   UNL     1      29.242   7.590  47.315  0.00  0.00    +0.000 A 
ATOM     19  C   UNL     1      27.908   7.966  47.427  0.00  0.00    +0.000 A 
ATOM     20  C   UNL     1      26.979   7.087  47.992  0.00  0.00    +0.000 A 
ENDBRANCH   6  15
TORSDOF 2
ENDMDL
MODEL 6
REMARK VINA RESULT:      -6.7      4.864      6.502
REMARK  Name = Molecule_17
REMARK  2 active torsions:
REMARK  status: ('A' for Active; 'I' for Inactive)
REMARK    1  A    between atoms: C_4  and  N_5
REMARK    2  A    between atoms: C_10  and  C_11
REMARK                            x       y       z     vdW  Elec       q    Type
REMARK                         _______ _______ _______ _____ _____    ______ ____
ROOT
ATOM      1  N   UNL     1      25.756   6.684  50.619  0.00  0.00    +0.000 N 
ATOM      2  C   UNL     1      26.117   7.673  49.708  0.00  0.00    +0.000 A 
ATOM      3  N   UNL     1      26.803   8.700  50.232  0.00  0.00    +0.000 NA
ATOM      4  C   UNL     1      27.165   9.687  49.394  0.00  0.00    +0.000 A 
ATOM      5  C   UNL     1      26.870   9.690  48.054  0.00  0.00    +0.000 A 
ATOM      6  C   UNL     1      26.161   8.603  47.588  0.00  0.00    +0.000 A 
ATOM      7  N   UNL     1      25.782   7.602  48.413  0.00  0.00    +0.000 NA
ATOM      8  H   UNL     1      26.102   6.943  51.531  0.00  0.00    +0.000 HD
ENDROOT
BRANCH   1  12
ATOM      9  C   UNL     1      24.036   2.846  50.248  0.00  0.00    +0.000 A 
ATOM     10  C   UNL     1      23.349   3.838  50.939  0.00  0.00    +0.000 A 
ATOM     11  C   UNL     1      23.902   5.119  51.068  0.00  0.00    +0.000 A 
ATOM     12  C   UNL     1      25.142   5.433  50.504  0.00  0.00    +0.000 A 
ATOM     13  C   UNL     1      25.821   4.414  49.818  0.00  0.00    +0.000 A 
ATOM     14  C   UNL     1      25.275   3.132  49.687  0.00  0.00    +0.000 A 
ENDBRANCH   1  12
BRANCH   6  15
ATOM     15  C   UNL     1      25.755   8.455  46.175  0.00  0.00    +0.000 A 
ATOM     16  C   UNL     1      26.641   8.701  45.110  0.00  0.00    +0.000 A 
ATOM     17  C   UNL     1      26.236   8.561  43.778  0.00  0.00    +0.000 A 
ATOM     18  C   UNL     1      24.934   8.167  43.482  0.00  0.00    +0.000 A 
ATOM     19  C   UNL     1      24.039   7.908  44.515  0.00  0.00    +0.000 A 
ATOM     20  C   UNL     1      24.447   8.049  45.845  0.00  0.00    +0.000 A 
ENDBRANCH   6  15
TORSDOF 2
ENDMDL
MODEL 7
REMARK VINA RESULT:      -6.7      2.467      6.528
REMARK  Name = Molecule_17
REMARK  2 active torsions:
REMARK  status: ('A' for Active; 'I' for Inactive)
REMARK    1  A    between atoms: C_4  and  N_5
REMARK    2  A    between atoms: C_10  and  C_11
REMARK                            x       y       z     vdW  Elec       q    Type
REMARK                         _______ _______ _______ _____ _____    ______ ____
ROOT
ATOM      1  N   UNL     1      24.867   7.166  50.114  0.00  0.00    +0.000 N 
ATOM      2  C   UNL     1      26.004   7.868  49.725  0.00  0.00    +0.000 A 
ATOM      3  N   UNL     1      25.917   9.201  49.856  0.00  0.00    +0.000 NA
ATOM      4  C   UNL     1      26.986   9.924  49.482  0.00  0.00    +0.000 A 
ATOM      5  C   UNL     1      28.138   9.373  48.983  0.00  0.00    +0.000 A 
ATOM      6  C   UNL     1      28.154   7.999  48.876  0.00  0.00    +0.000 A 
ATOM      7  N   UNL     1      27.089   7.250  49.240  0.00  0.00    +0.000 NA
ATOM      8  H   UNL     1      24.174   7.825  50.438  0.00  0.00    +0.000 HD
ENDROOT
BRANCH   1  12
ATOM      9  C   UNL     1      23.822   3.102  50.584  0.00  0.00    +0.000 A 
ATOM     10  C   UNL     1      24.498   3.505  49.437  0.00  0.00    +0.000 A 
ATOM     11  C   UNL     1      24.857   4.848  49.267  0.00  0.00    +0.000 A 
ATOM     12  C   UNL     1      24.557   5.808  50.238  0.00  0.00    +0.000 A 
ATOM     13  C   UNL     1      23.866   5.380  51.383  0.00  0.00    +0.000 A 
ATOM     14  C   UNL     1      23.503   4.040  51.559  0.00  0.00    +0.000 A 
ENDBRANCH   1  12
BRANCH   6  15
ATOM     15  C   UNL     1      29.312   7.246  48.350  0.00  0.00    +0.000 A 
ATOM     16  C   UNL     1      29.309   5.843  48.245  0.00  0.00    +0.000 A 
ATOM     17  C   UNL     1      30.419   5.147  47.750  0.00  0.00    +0.000 A 
ATOM     18  C   UNL     1      31.555   5.842  47.346  0.00  0.00    +0.000 A 
ATOM     19  C   UNL     1      31.582   7.230  47.432  0.00  0.00    +0.000 A 
ATOM     20  C   UNL     1      30.473   7.922  47.926  0.00  0.00    +0.000 A 
ENDBRANCH   6  15
TORSDOF 2
ENDMDL
MODEL 8
REMARK VINA RESULT:      -6.7      1.997      6.554
REMARK  Name = Molecule_17
REMARK  2 active torsions:
REMARK  status: ('A' for Active; 'I' for Inactive)
REMARK    1  A    between atoms: C_4  and  N_5
REMARK    2  A    between atoms: C_10  and  C_11
REMARK                            x       y       z     vdW  Elec       q    Type
REMARK                         _______ _______ _______ _____ _____    ______ ____
ROOT
ATOM      1  N   UNL     1      29.709   8.112  47.966  0.00  0.00    +0.000 N 
ATOM      2  C   UNL     1      31.063   8.102  47.645  0.00  0.00    +0.000 A 
ATOM      3  N   UNL     1      31.629   9.314  47.547  0.00  0.00    +0.000 NA
ATOM      4  C   UNL     1      32.933   9.358  47.227  0.00  0.00    +0.000 A 
ATOM      5  C   UNL     1      33.697   8.241  47.002  0.00  0.00    +0.000 A 
ATOM      6  C   UNL     1      33.047   7.030  47.120  0.00  0.00    +0.000 A 
ATOM      7  N   UNL     1      31.735   6.962  47.434  0.00  0.00    +0.000 NA
ATOM      8  H   UNL     1      29.408   9.069  48.073  0.00  0.00    +0.000 HD
ENDROOT
BRANCH   1  12
ATOM      9  C   UNL     1      26.766   5.201  48.802  0.00  0.00    +0.000 A 
ATOM     10  C   UNL     1      28.073   4.798  48.547  0.00  0.00    +0.000 A 
ATOM     11  C   UNL     1      29.063   5.749  48.273  0.00  0.00    +0.000 A 
ATOM     12  C   UNL     1      28.771   7.116  48.256  0.00  0.00    +0.000 A 
ATOM     13  C   UNL     1      27.443   7.500  48.508  0.00  0.00    +0.000 A 
ATOM     14  C   UNL     1      26.449   6.554  48.781  0.00  0.00    +0.000 A 
ENDBRANCH   1  12
BRANCH   6  15
ATOM     15  C   UNL     1      33.720   5.732  46.901  0.00  0.00    +0.000 A 
ATOM     16  C   UNL     1      33.986   5.233  45.613  0.00  0.00    +0.000 A 
ATOM     17  C   UNL     1      34.618   3.999  45.426  0.00  0.00    +0.000 A 
ATOM     18  C   UNL     1      35.002   3.237  46.527  0.00  0.00    +0.000 A 
ATOM     19  C   UNL     1      34.759   3.710  47.812  0.00  0.00    +0.000 A 
ATOM     20  C   UNL     1      34.127   4.944  47.995  0.00  0.00    +0.000 A 
ENDBRANCH   6  15
TORSDOF 2
ENDMDL
MODEL 9
REMARK VINA RESULT:      -6.6      4.152      6.841
REMARK  Name = Molecule_17
REMARK  2 active torsions:
REMARK  status: ('A' for Active; 'I' for Inactive)
REMARK    1  A    between atoms: C_4  and  N_5
REMARK    2  A    between atoms: C_10  and  C_11
REMARK                            x       y       z     vdW  Elec       q    Type
REMARK                         _______ _______ _______ _____ _____    ______ ____
ROOT
ATOM      1  N   UNL     1      25.343   4.656  50.124  0.00  0.00    +0.000 N 
ATOM      2  C   UNL     1      24.054   5.010  50.514  0.00  0.00    +0.000 A 
ATOM      3  N   UNL     1      23.445   4.126  51.318  0.00  0.00    +0.000 NA
ATOM      4  C   UNL     1      22.194   4.418  51.713  0.00  0.00    +0.000 A 
ATOM      5  C   UNL     1      21.526   5.556  51.338  0.00  0.00    +0.000 A 
ATOM      6  C   UNL     1      22.215   6.417  50.510  0.00  0.00    +0.000 A 
ATOM      7  N   UNL     1      23.472   6.142  50.095  0.00  0.00    +0.000 NA
ATOM      8  H   UNL     1      25.577   3.769  50.547  0.00  0.00    +0.000 HD
ENDROOT
BRANCH   1  12
ATOM      9  C   UNL     1      28.431   6.459  47.879  0.00  0.00    +0.000 A 
ATOM     10  C   UNL     1      27.319   7.212  48.238  0.00  0.00    +0.000 A 
ATOM     11  C   UNL     1      26.287   6.633  48.987  0.00  0.00    +0.000 A 
ATOM     12  C   UNL     1      26.350   5.298  49.397  0.00  0.00    +0.000 A 
ATOM     13  C   UNL     1      27.479   4.554  49.016  0.00  0.00    +0.000 A 
ATOM     14  C   UNL     1      28.513   5.127  48.267  0.00  0.00    +0.000 A 
ENDBRANCH   1  12
BRANCH   6  15
ATOM     15  C   UNL     1      21.639   7.681  50.007  0.00  0.00    +0.000 A 
ATOM     16  C   UNL     1      20.300   8.041  50.243  0.00  0.00    +0.000 A 
ATOM     17  C   UNL     1      19.771   9.241  49.752  0.00  0.00    +0.000 A 
ATOM     18  C   UNL     1      20.574  10.109  49.017  0.00  0.00    +0.000 A 
ATOM     19  C   UNL     1      21.904   9.783  48.777  0.00  0.00    +0.000 A 
ATOM     20  C   UNL     1      22.429   8.583  49.268  0.00  0.00    +0.000 A 
ENDBRANCH   6  15
TORSDOF 2
ENDMDL
