MODEL 1
REMARK VINA RESULT:      -7.1      0.000      0.000
REMARK  Name = Molecule_17
REMARK  2 active torsions:
REMARK  status: ('A' for Active; 'I' for Inactive)
REMARK    1  A    between atoms: C_4  and  N_5
REMARK    2  A    between atoms: C_10  and  C_11
REMARK                            x       y       z     vdW  Elec       q    Type
REMARK                         _______ _______ _______ _____ _____    ______ ____
ROOT
ATOM      1  N   UNL     1      21.103   6.875  50.748  0.00  0.00    -0.284 N 
ATOM      2  C   UNL     1      22.101   5.917  50.899  0.00  0.00    +0.220 A 
ATOM      3  N   UNL     1      21.791   4.904  51.723  0.00  0.00    -0.223 NA
ATOM      4  C   UNL     1      22.727   3.958  51.911  0.00  0.00    +0.116 A 
ATOM      5  C   UNL     1      23.960   3.981  51.310  0.00  0.00    +0.048 A 
ATOM      6  C   UNL     1      24.207   5.052  50.478  0.00  0.00    +0.076 A 
ATOM      7  N   UNL     1      23.284   6.019  50.279  0.00  0.00    -0.214 NA
ATOM      8  H   UNL     1      20.307   6.604  51.306  0.00  0.00    +0.155 HD
ENDROOT
BRANCH   1  12
ATOM      9  C   UNL     1      20.529  10.324  48.381  0.00  0.00    +0.000 A 
ATOM     10  C   UNL     1      21.819   9.845  48.588  0.00  0.00    +0.002 A 
ATOM     11  C   UNL     1      22.028   8.699  49.366  0.00  0.00    +0.023 A 
ATOM     12  C   UNL     1      20.957   8.009  49.942  0.00  0.00    +0.034 A 
ATOM     13  C   UNL     1      19.665   8.516  49.728  0.00  0.00    +0.023 A 
ATOM     14  C   UNL     1      19.450   9.661  48.952  0.00  0.00    +0.002 A 
ENDBRANCH   1  12
BRANCH   6  15
ATOM     15  C   UNL     1      25.487   5.235  49.761  0.00  0.00    +0.001 A 
ATOM     16  C   UNL     1      26.367   4.165  49.515  0.00  0.00    +0.010 A 
ATOM     17  C   UNL     1      27.577   4.358  48.838  0.00  0.00    +0.001 A 
ATOM     18  C   UNL     1      27.932   5.628  48.391  0.00  0.00    +0.000 A 
ATOM     19  C   UNL     1      27.077   6.702  48.613  0.00  0.00    +0.001 A 
ATOM     20  C   UNL     1      25.868   6.505  49.289  0.00  0.00    +0.010 A 
ENDBRANCH   6  15
TORSDOF 2
ENDMDL
MODEL 2
REMARK VINA RESULT:      -7.0      0.369      1.161
REMARK  Name = Molecule_17
REMARK  2 active torsions:
REMARK  status: ('A' for Active; 'I' for Inactive)
REMARK    1  A    between atoms: C_4  and  N_5
REMARK    2  A    between atoms: C_10  and  C_11
REMARK                            x       y       z     vdW  Elec       q    Type
REMARK                         _______ _______ _______ _____ _____    ______ ____
ROOT
ATOM      1  N   UNL     1      20.878   6.880  50.689  0.00  0.00    -0.284 N 
ATOM      2  C   UNL     1      21.842   5.901  50.916  0.00  0.00    +0.220 A 
ATOM      3  N   UNL     1      21.484   4.950  51.793  0.00  0.00    -0.223 NA
ATOM      4  C   UNL     1      22.385   3.988  52.055  0.00  0.00    +0.116 A 
ATOM      5  C   UNL     1      23.629   3.936  51.477  0.00  0.00    +0.048 A 
ATOM      6  C   UNL     1      23.925   4.946  50.588  0.00  0.00    +0.076 A 
ATOM      7  N   UNL     1      23.037   5.928  50.313  0.00  0.00    -0.214 NA
ATOM      8  H   UNL     1      20.064   6.669  51.247  0.00  0.00    +0.155 HD
ENDROOT
BRANCH   1  12
ATOM      9  C   UNL     1      20.446  10.175  48.084  0.00  0.00    +0.000 A 
ATOM     10  C   UNL     1      21.709   9.846  48.566  0.00  0.00    +0.002 A 
ATOM     11  C   UNL     1      21.872   8.753  49.427  0.00  0.00    +0.023 A 
ATOM     12  C   UNL     1      20.784   7.967  49.814  0.00  0.00    +0.034 A 
ATOM     13  C   UNL     1      19.517   8.322  49.323  0.00  0.00    +0.023 A 
ATOM     14  C   UNL     1      19.347   9.413  48.463  0.00  0.00    +0.002 A 
ENDBRANCH   1  12
BRANCH   6  15
ATOM     15  C   UNL     1      25.222   5.044  49.885  0.00  0.00    +0.001 A 
ATOM     16  C   UNL     1      25.695   6.257  49.351  0.00  0.00    +0.010 A 
ATOM     17  C   UNL     1      26.924   6.328  48.683  0.00  0.00    +0.001 A 
ATOM     18  C   UNL     1      27.707   5.187  48.539  0.00  0.00    +0.000 A 
ATOM     19  C   UNL     1      27.267   3.977  49.064  0.00  0.00    +0.001 A 
ATOM     20  C   UNL     1      26.040   3.908  49.731  0.00  0.00    +0.010 A 
ENDBRANCH   6  15
TORSDOF 2
ENDMDL
MODEL 3
REMARK VINA RESULT:      -7.0      1.231      1.662
REMARK  Name = Molecule_17
REMARK  2 active torsions:
REMARK  status: ('A' for Active; 'I' for Inactive)
REMARK    1  A    between atoms: C_4  and  N_5
REMARK    2  A    between atoms: C_10  and  C_11
REMARK                            x       y       z     vdW  Elec       q    Type
REMARK                         _______ _______ _______ _____ _____    ______ ____
ROOT
ATOM      1  N   UNL     1      22.219   6.022  50.089  0.00  0.00    -0.284 N 
ATOM      2  C   UNL     1      23.367   5.252  49.927  0.00  0.00    +0.220 A 
ATOM      3  N   UNL     1      23.261   3.984  50.354  0.00  0.00    -0.223 NA
ATOM      4  C   UNL     1      24.348   3.204  50.230  0.00  0.00    +0.116 A 
ATOM      5  C   UNL     1      25.536   3.635  49.696  0.00  0.00    +0.048 A 
ATOM      6  C   UNL     1      25.569   4.949  49.280  0.00  0.00    +0.076 A 
ATOM      7  N   UNL     1      24.491   5.755  49.400  0.00  0.00    -0.214 NA
ATOM      8  H   UNL     1      21.501   5.449  50.508  0.00  0.00    +0.155 HD
ENDROOT
BRANCH   1  12
ATOM      9  C   UNL     1      21.017   9.936  49.056  0.00  0.00    +0.000 A 
ATOM     10  C   UNL     1      22.287   9.495  48.700  0.00  0.00    +0.002 A 
ATOM     11  C   UNL     1      22.701   8.198  49.029  0.00  0.00    +0.023 A 
ATOM     12  C   UNL     1      21.855   7.318  49.710  0.00  0.00    +0.034 A 
ATOM     13  C   UNL     1      20.580   7.787  50.068  0.00  0.00    +0.023 A 
ATOM     14  C   UNL     1      20.161   9.082  49.742  0.00  0.00    +0.002 A 
ENDBRANCH   1  12
BRANCH   6  15
ATOM     15  C   UNL     1      26.772   5.576  48.691  0.00  0.00    +0.001 A 
ATOM     16  C   UNL     1      28.012   4.914  48.639  0.00  0.00    +0.010 A 
ATOM     17  C   UNL     1      29.141   5.526  48.082  0.00  0.00    +0.001 A 
ATOM     18  C   UNL     1      29.052   6.814  47.562  0.00  0.00    +0.000 A 
ATOM     19  C   UNL     1      27.836   7.488  47.592  0.00  0.00    +0.001 A 
ATOM     20  C   UNL     1      26.710   6.874  48.149  0.00  0.00    +0.010 A 
ENDBRANCH   6  15
TORSDOF 2
ENDMDL
MODEL 4
REMARK VINA RESULT:      -7.0      3.382      7.203
REMARK  Name = Molecule_17
REMARK  2 active torsions:
REMARK  status: ('A' for Active; 'I' for Inactive)
REMARK    1  A    between atoms: C_4  and  N_5
REMARK    2  A    between atoms: C_10  and  C_11
REMARK                            x       y       z     vdW  Elec       q    Type
REMARK                         _______ _______ _______ _____ _____    ______ ____
ROOT
ATOM      1  N   UNL     1      28.682   8.296  48.957  0.00  0.00    -0.284 N 
ATOM      2  C   UNL     1      27.341   8.154  49.301  0.00  0.00    +0.220 A 
ATOM      3  N   UNL     1      26.662   9.306  49.416  0.00  0.00    -0.223 NA
ATOM      4  C   UNL     1      25.365   9.221  49.757  0.00  0.00    +0.116 A 
ATOM      5  C   UNL     1      24.717   8.034  49.987  0.00  0.00    +0.048 A 
ATOM      6  C   UNL     1      25.478   6.893  49.851  0.00  0.00    +0.076 A 
ATOM      7  N   UNL     1      26.786   6.953  49.515  0.00  0.00    -0.214 NA
ATOM      8  H   UNL     1      28.887   9.279  48.852  0.00  0.00    +0.155 HD
ENDROOT
BRANCH   1  12
ATOM      9  C   UNL     1      31.858   5.640  48.128  0.00  0.00    +0.000 A 
ATOM     10  C   UNL     1      30.573   5.322  47.701  0.00  0.00    +0.002 A 
ATOM     11  C   UNL     1      29.508   6.194  47.963  0.00  0.00    +0.023 A 
ATOM     12  C   UNL     1      29.707   7.398  48.645  0.00  0.00    +0.034 A 
ATOM     13  C   UNL     1      31.011   7.694  49.074  0.00  0.00    +0.023 A 
ATOM     14  C   UNL     1      32.079   6.827  48.817  0.00  0.00    +0.002 A 
ENDBRANCH   1  12
BRANCH   6  15
ATOM     15  C   UNL     1      24.938   5.535  50.072  0.00  0.00    +0.001 A 
ATOM     16  C   UNL     1      25.534   4.391  49.509  0.00  0.00    +0.010 A 
ATOM     17  C   UNL     1      25.004   3.113  49.725  0.00  0.00    +0.001 A 
ATOM     18  C   UNL     1      23.868   2.952  50.512  0.00  0.00    +0.000 A 
ATOM     19  C   UNL     1      23.264   4.065  51.088  0.00  0.00    +0.001 A 
ATOM     20  C   UNL     1      23.795   5.340  50.871  0.00  0.00    +0.010 A 
ENDBRANCH   6  15
TORSDOF 2
ENDMDL
MODEL 5
REMARK VINA RESULT:      -6.8      3.427      6.108
REMARK  Name = Molecule_17
REMARK  2 active torsions:
REMARK  status: ('A' for Active; 'I' for Inactive)
REMARK    1  A    between atoms: C_4  and  N_5
REMARK    2  A    between atoms: C_10  and  C_11
REMARK                            x       y       z     vdW  Elec       q    Type
REMARK                         _______ _______ _______ _____ _____    ______ ____
ROOT
ATOM      1  N   UNL     1      25.753   6.711  50.640  0.00  0.00    -0.284 N 
ATOM      2  C   UNL     1      26.120   7.692  49.724  0.00  0.00    +0.220 A 
ATOM      3  N   UNL     1      26.815   8.716  50.241  0.00  0.00    -0.223 NA
ATOM      4  C   UNL     1      27.183   9.695  49.397  0.00  0.00    +0.116 A 
ATOM      5  C   UNL     1      26.886   9.694  48.057  0.00  0.00    +0.048 A 
ATOM      6  C   UNL     1      26.169   8.609  47.598  0.00  0.00    +0.076 A 
ATOM      7  N   UNL     1      25.783   7.616  48.429  0.00  0.00    -0.214 NA
ATOM      8  H   UNL     1      26.103   6.972  51.551  0.00  0.00    +0.155 HD
ENDROOT
BRANCH   1  12
ATOM      9  C   UNL     1      24.004   2.884  50.289  0.00  0.00    +0.000 A 
ATOM     10  C   UNL     1      23.344   3.873  51.011  0.00  0.00    +0.002 A 
ATOM     11  C   UNL     1      23.907   5.149  51.134  0.00  0.00    +0.023 A 
ATOM     12  C   UNL     1      25.130   5.464  50.534  0.00  0.00    +0.034 A 
ATOM     13  C   UNL     1      25.782   4.448  49.816  0.00  0.00    +0.023 A 
ATOM     14  C   UNL     1      25.226   3.170  49.691  0.00  0.00    +0.002 A 
ENDBRANCH   1  12
BRANCH   6  15
ATOM     15  C   UNL     1      25.759   8.455  46.186  0.00  0.00    +0.001 A 
ATOM     16  C   UNL     1      24.467   8.036  45.823  0.00  0.00    +0.010 A 
ATOM     17  C   UNL     1      24.099   7.890  44.480  0.00  0.00    +0.001 A 
ATOM     18  C   UNL     1      25.018   8.165  43.471  0.00  0.00    +0.000 A 
ATOM     19  C   UNL     1      26.300   8.590  43.802  0.00  0.00    +0.001 A 
ATOM     20  C   UNL     1      26.664   8.734  45.144  0.00  0.00    +0.010 A 
ENDBRANCH   6  15
TORSDOF 2
ENDMDL
MODEL 6
REMARK VINA RESULT:      -6.8      3.546      5.898
REMARK  Name = Molecule_17
REMARK  2 active torsions:
REMARK  status: ('A' for Active; 'I' for Inactive)
REMARK    1  A    between atoms: C_4  and  N_5
REMARK    2  A    between atoms: C_10  and  C_11
REMARK                            x       y       z     vdW  Elec       q    Type
REMARK                         _______ _______ _______ _____ _____    ______ ____
ROOT
ATOM      1  N   UNL     1      25.332   7.001  50.049  0.00  0.00    -0.284 N 
ATOM      2  C   UNL     1      26.438   7.726  49.616  0.00  0.00    +0.220 A 
ATOM      3  N   UNL     1      26.356   9.051  49.814  0.00  0.00    -0.223 NA
ATOM      4  C   UNL     1      27.396   9.797  49.401  0.00  0.00    +0.116 A 
ATOM      5  C   UNL     1      28.513   9.275  48.800  0.00  0.00    +0.048 A 
ATOM      6  C   UNL     1      28.525   7.908  48.629  0.00  0.00    +0.076 A 
ATOM      7  N   UNL     1      27.489   7.137  49.030  0.00  0.00    -0.214 NA
ATOM      8  H   UNL     1      24.661   7.641  50.450  0.00  0.00    +0.155 HD
ENDROOT
BRANCH   1  12
ATOM      9  C   UNL     1      24.290   2.918  50.324  0.00  0.00    +0.000 A 
ATOM     10  C   UNL     1      25.430   3.286  49.617  0.00  0.00    +0.002 A 
ATOM     11  C   UNL     1      25.794   4.635  49.520  0.00  0.00    +0.023 A 
ATOM     12  C   UNL     1      25.034   5.637  50.130  0.00  0.00    +0.034 A 
ATOM     13  C   UNL     1      23.882   5.243  50.831  0.00  0.00    +0.023 A 
ATOM     14  C   UNL     1      23.512   3.898  50.931  0.00  0.00    +0.002 A 
ENDBRANCH   1  12
BRANCH   6  15
ATOM     15  C   UNL     1      29.646   7.186  47.992  0.00  0.00    +0.001 A 
ATOM     16  C   UNL     1      30.541   7.821  47.110  0.00  0.00    +0.010 A 
ATOM     17  C   UNL     1      31.594   7.119  46.511  0.00  0.00    +0.001 A 
ATOM     18  C   UNL     1      31.777   5.767  46.785  0.00  0.00    +0.000 A 
ATOM     19  C   UNL     1      30.913   5.117  47.660  0.00  0.00    +0.001 A 
ATOM     20  C   UNL     1      29.862   5.820  48.257  0.00  0.00    +0.010 A 
ENDBRANCH   6  15
TORSDOF 2
ENDMDL
MODEL 7
REMARK VINA RESULT:      -6.8      0.927      5.947
REMARK  Name = Molecule_17
REMARK  2 active torsions:
REMARK  status: ('A' for Active; 'I' for Inactive)
REMARK    1  A    between atoms: C_4  and  N_5
REMARK    2  A    between atoms: C_10  and  C_11
REMARK                            x       y       z     vdW  Elec       q    Type
REMARK                         _______ _______ _______ _____ _____    ______ ____
ROOT
ATOM      1  N   UNL     1      25.242   4.519  50.363  0.00  0.00    -0.284 N 
ATOM      2  C   UNL     1      23.946   4.888  50.713  0.00  0.00    +0.220 A 
ATOM      3  N   UNL     1      23.337   4.059  51.574  0.00  0.00    -0.223 NA
ATOM      4  C   UNL     1      22.079   4.366  51.935  0.00  0.00    +0.116 A 
ATOM      5  C   UNL     1      21.405   5.467  51.472  0.00  0.00    +0.048 A 
ATOM      6  C   UNL     1      22.094   6.272  50.590  0.00  0.00    +0.076 A 
ATOM      7  N   UNL     1      23.357   5.980  50.208  0.00  0.00    -0.214 NA
ATOM      8  H   UNL     1      25.480   3.668  50.851  0.00  0.00    +0.155 HD
ENDROOT
BRANCH   1  12
ATOM      9  C   UNL     1      28.255   6.453  48.125  0.00  0.00    +0.000 A 
ATOM     10  C   UNL     1      28.325   5.078  48.319  0.00  0.00    +0.002 A 
ATOM     11  C   UNL     1      27.332   4.418  49.054  0.00  0.00    +0.023 A 
ATOM     12  C   UNL     1      26.250   5.116  49.600  0.00  0.00    +0.034 A 
ATOM     13  C   UNL     1      26.204   6.505  49.399  0.00  0.00    +0.023 A 
ATOM     14  C   UNL     1      27.194   7.170  48.666  0.00  0.00    +0.002 A 
ENDBRANCH   1  12
BRANCH   6  15
ATOM     15  C   UNL     1      21.512   7.491  49.990  0.00  0.00    +0.001 A 
ATOM     16  C   UNL     1      22.309   8.495  49.411  0.00  0.00    +0.010 A 
ATOM     17  C   UNL     1      21.740   9.646  48.853  0.00  0.00    +0.001 A 
ATOM     18  C   UNL     1      20.358   9.815  48.860  0.00  0.00    +0.000 A 
ATOM     19  C   UNL     1      19.545   8.834  49.419  0.00  0.00    +0.001 A 
ATOM     20  C   UNL     1      20.117   7.686  49.975  0.00  0.00    +0.010 A 
ENDBRANCH   6  15
TORSDOF 2
ENDMDL
MODEL 8
REMARK VINA RESULT:      -6.7      3.424      6.143
REMARK  Name = Molecule_17
REMARK  2 active torsions:
REMARK  status: ('A' for Active; 'I' for Inactive)
REMARK    1  A    between atoms: C_4  and  N_5
REMARK    2  A    between atoms: C_10  and  C_11
REMARK                            x       y       z     vdW  Elec       q    Type
REMARK                         _______ _______ _______ _____ _____    ______ ____
ROOT
ATOM      1  N   UNL     1      25.935   6.559  50.461  0.00  0.00    -0.284 N 
ATOM      2  C   UNL     1      26.194   7.566  49.535  0.00  0.00    +0.220 A 
ATOM      3  N   UNL     1      26.909   8.597  50.009  0.00  0.00    -0.223 NA
ATOM      4  C   UNL     1      27.175   9.601  49.156  0.00  0.00    +0.116 A 
ATOM      5  C   UNL     1      26.757   9.618  47.849  0.00  0.00    +0.048 A 
ATOM      6  C   UNL     1      26.026   8.525  47.435  0.00  0.00    +0.076 A 
ATOM      7  N   UNL     1      25.741   7.506  48.276  0.00  0.00    -0.214 NA
ATOM      8  H   UNL     1      26.360   6.811  51.341  0.00  0.00    +0.155 HD
ENDROOT
BRANCH   1  12
ATOM      9  C   UNL     1      23.983   2.820  50.260  0.00  0.00    +0.000 A 
ATOM     10  C   UNL     1      25.218   2.980  49.640  0.00  0.00    +0.002 A 
ATOM     11  C   UNL     1      25.883   4.212  49.700  0.00  0.00    +0.023 A 
ATOM     12  C   UNL     1      25.333   5.299  50.385  0.00  0.00    +0.034 A 
ATOM     13  C   UNL     1      24.081   5.117  50.997  0.00  0.00    +0.023 A 
ATOM     14  C   UNL     1      23.412   3.890  50.939  0.00  0.00    +0.002 A 
ENDBRANCH   1  12
BRANCH   6  15
ATOM     15  C   UNL     1      25.492   8.388  46.063  0.00  0.00    +0.001 A 
ATOM     16  C   UNL     1      26.245   8.740  44.927  0.00  0.00    +0.010 A 
ATOM     17  C   UNL     1      25.720   8.609  43.636  0.00  0.00    +0.001 A 
ATOM     18  C   UNL     1      24.430   8.117  43.454  0.00  0.00    +0.000 A 
ATOM     19  C   UNL     1      23.667   7.753  44.558  0.00  0.00    +0.001 A 
ATOM     20  C   UNL     1      24.194   7.886  45.847  0.00  0.00    +0.010 A 
ENDBRANCH   6  15
TORSDOF 2
ENDMDL
MODEL 9
REMARK VINA RESULT:      -6.7      3.050      5.275
REMARK  Name = Molecule_17
REMARK  2 active torsions:
REMARK  status: ('A' for Active; 'I' for Inactive)
REMARK    1  A    between atoms: C_4  and  N_5
REMARK    2  A    between atoms: C_10  and  C_11
REMARK                            x       y       z     vdW  Elec       q    Type
REMARK                         _______ _______ _______ _____ _____    ______ ____
ROOT
ATOM      1  N   UNL     1      23.788   6.434  48.501  0.00  0.00    -0.284 N 
ATOM      2  C   UNL     1      24.853   7.109  47.911  0.00  0.00    +0.220 A 
ATOM      3  N   UNL     1      24.505   7.992  46.963  0.00  0.00    -0.223 NA
ATOM      4  C   UNL     1      25.499   8.661  46.355  0.00  0.00    +0.116 A 
ATOM      5  C   UNL     1      26.826   8.487  46.655  0.00  0.00    +0.048 A 
ATOM      6  C   UNL     1      27.107   7.563  47.639  0.00  0.00    +0.076 A 
ATOM      7  N   UNL     1      26.125   6.873  48.260  0.00  0.00    -0.214 NA
ATOM      8  H   UNL     1      22.928   6.759  48.086  0.00  0.00    +0.155 HD
ENDROOT
BRANCH   1  12
ATOM      9  C   UNL     1      23.364   3.800  51.774  0.00  0.00    +0.000 A 
ATOM     10  C   UNL     1      23.750   3.295  50.537  0.00  0.00    +0.002 A 
ATOM     11  C   UNL     1      23.901   4.154  49.442  0.00  0.00    +0.023 A 
ATOM     12  C   UNL     1      23.678   5.529  49.562  0.00  0.00    +0.034 A 
ATOM     13  C   UNL     1      23.280   6.016  50.818  0.00  0.00    +0.023 A 
ATOM     14  C   UNL     1      23.127   5.163  51.916  0.00  0.00    +0.002 A 
ENDBRANCH   1  12
BRANCH   6  15
ATOM     15  C   UNL     1      28.483   7.247  48.077  0.00  0.00    +0.001 A 
ATOM     16  C   UNL     1      29.358   8.234  48.568  0.00  0.00    +0.010 A 
ATOM     17  C   UNL     1      30.660   7.917  48.972  0.00  0.00    +0.001 A 
ATOM     18  C   UNL     1      31.114   6.603  48.898  0.00  0.00    +0.000 A 
ATOM     19  C   UNL     1      30.267   5.606  48.425  0.00  0.00    +0.001 A 
ATOM     20  C   UNL     1      28.967   5.926  48.021  0.00  0.00    +0.010 A 
ENDBRANCH   6  15
TORSDOF 2
ENDMDL
MODEL 10
REMARK VINA RESULT:      -6.7      2.357      6.511
REMARK  Name = Molecule_17
REMARK  2 active torsions:
REMARK  status: ('A' for Active; 'I' for Inactive)
REMARK    1  A    between atoms: C_4  and  N_5
REMARK    2  A    between atoms: C_10  and  C_11
REMARK                            x       y       z     vdW  Elec       q    Type
REMARK                         _______ _______ _______ _____ _____    ______ ____
ROOT
ATOM      1  N   UNL     1      28.001   4.705  48.682  0.00  0.00    -0.284 N 
ATOM      2  C   UNL     1      26.711   4.503  49.163  0.00  0.00    +0.220 A 
ATOM      3  N   UNL     1      26.443   3.248  49.554  0.00  0.00    -0.223 NA
ATOM      4  C   UNL     1      25.205   3.000  50.015  0.00  0.00    +0.116 A 
ATOM      5  C   UNL     1      24.224   3.955  50.104  0.00  0.00    +0.048 A 
ATOM      6  C   UNL     1      24.572   5.221  49.684  0.00  0.00    +0.076 A 
ATOM      7  N   UNL     1      25.808   5.492  49.210  0.00  0.00    -0.214 NA
ATOM      8  H   UNL     1      28.505   3.831  48.730  0.00  0.00    +0.155 HD
ENDROOT
BRANCH   1  12
ATOM      9  C   UNL     1      30.297   8.016  47.420  0.00  0.00    +0.000 A 
ATOM     10  C   UNL     1      28.909   8.099  47.398  0.00  0.00    +0.002 A 
ATOM     11  C   UNL     1      28.131   7.013  47.818  0.00  0.00    +0.023 A 
ATOM     12  C   UNL     1      28.722   5.831  48.273  0.00  0.00    +0.034 A 
ATOM     13  C   UNL     1      30.126   5.765  48.278  0.00  0.00    +0.023 A 
ATOM     14  C   UNL     1      30.908   6.847  47.859  0.00  0.00    +0.002 A 
ENDBRANCH   1  12
BRANCH   6  15
ATOM     15  C   UNL     1      23.632   6.361  49.704  0.00  0.00    +0.001 A 
ATOM     16  C   UNL     1      22.489   6.376  50.525  0.00  0.00    +0.010 A 
ATOM     17  C   UNL     1      21.607   7.463  50.526  0.00  0.00    +0.001 A 
ATOM     18  C   UNL     1      21.852   8.562  49.707  0.00  0.00    +0.000 A 
ATOM     19  C   UNL     1      22.979   8.578  48.892  0.00  0.00    +0.001 A 
ATOM     20  C   UNL     1      23.858   7.490  48.893  0.00  0.00    +0.010 A 
ENDBRANCH   6  15
TORSDOF 2
ENDMDL
MODEL 11
REMARK VINA RESULT:      -6.6      2.383      4.697
REMARK  Name = Molecule_17
REMARK  2 active torsions:
REMARK  status: ('A' for Active; 'I' for Inactive)
REMARK    1  A    between atoms: C_4  and  N_5
REMARK    2  A    between atoms: C_10  and  C_11
REMARK                            x       y       z     vdW  Elec       q    Type
REMARK                         _______ _______ _______ _____ _____    ______ ____
ROOT
ATOM      1  N   UNL     1      22.672   6.913  49.363  0.00  0.00    -0.284 N 
ATOM      2  C   UNL     1      23.663   7.543  48.616  0.00  0.00    +0.220 A 
ATOM      3  N   UNL     1      23.260   8.640  47.956  0.00  0.00    -0.223 NA
ATOM      4  C   UNL     1      24.178   9.278  47.210  0.00  0.00    +0.116 A 
ATOM      5  C   UNL     1      25.483   8.867  47.097  0.00  0.00    +0.048 A 
ATOM      6  C   UNL     1      25.822   7.733  47.802  0.00  0.00    +0.076 A 
ATOM      7  N   UNL     1      24.915   7.071  48.554  0.00  0.00    -0.214 NA
ATOM      8  H   UNL     1      21.811   7.431  49.262  0.00  0.00    +0.155 HD
ENDROOT
BRANCH   1  12
ATOM      9  C   UNL     1      22.789   3.631  52.017  0.00  0.00    +0.000 A 
ATOM     10  C   UNL     1      21.836   4.627  52.204  0.00  0.00    +0.002 A 
ATOM     11  C   UNL     1      21.779   5.720  51.331  0.00  0.00    +0.023 A 
ATOM     12  C   UNL     1      22.663   5.835  50.254  0.00  0.00    +0.034 A 
ATOM     13  C   UNL     1      23.622   4.822  50.089  0.00  0.00    +0.023 A 
ATOM     14  C   UNL     1      23.685   3.728  50.959  0.00  0.00    +0.002 A 
ENDBRANCH   1  12
BRANCH   6  15
ATOM     15  C   UNL     1      27.181   7.151  47.783  0.00  0.00    +0.001 A 
ATOM     16  C   UNL     1      27.485   5.936  48.425  0.00  0.00    +0.010 A 
ATOM     17  C   UNL     1      28.779   5.403  48.400  0.00  0.00    +0.001 A 
ATOM     18  C   UNL     1      29.798   6.074  47.729  0.00  0.00    +0.000 A 
ATOM     19  C   UNL     1      29.523   7.273  47.079  0.00  0.00    +0.001 A 
ATOM     20  C   UNL     1      28.230   7.802  47.105  0.00  0.00    +0.010 A 
ENDBRANCH   6  15
TORSDOF 2
ENDMDL
MODEL 12
REMARK VINA RESULT:      -6.6      3.257      6.168
REMARK  Name = Molecule_17
REMARK  2 active torsions:
REMARK  status: ('A' for Active; 'I' for Inactive)
REMARK    1  A    between atoms: C_4  and  N_5
REMARK    2  A    between atoms: C_10  and  C_11
REMARK                            x       y       z     vdW  Elec       q    Type
REMARK                         _______ _______ _______ _____ _____    ______ ____
ROOT
ATOM      1  N   UNL     1      24.256   6.423  50.186  0.00  0.00    -0.284 N 
ATOM      2  C   UNL     1      22.950   6.494  49.711  0.00  0.00    +0.220 A 
ATOM      3  N   UNL     1      22.101   7.177  50.494  0.00  0.00    -0.223 NA
ATOM      4  C   UNL     1      20.824   7.264  50.084  0.00  0.00    +0.116 A 
ATOM      5  C   UNL     1      20.359   6.698  48.924  0.00  0.00    +0.048 A 
ATOM      6  C   UNL     1      21.288   6.011  48.172  0.00  0.00    +0.076 A 
ATOM      7  N   UNL     1      22.577   5.905  48.567  0.00  0.00    -0.214 NA
ATOM      8  H   UNL     1      24.311   6.926  51.059  0.00  0.00    +0.155 HD
ENDROOT
BRANCH   1  12
ATOM      9  C   UNL     1      27.808   4.754  48.628  0.00  0.00    +0.000 A 
ATOM     10  C   UNL     1      27.545   6.105  48.430  0.00  0.00    +0.002 A 
ATOM     11  C   UNL     1      26.374   6.677  48.944  0.00  0.00    +0.023 A 
ATOM     12  C   UNL     1      25.453   5.916  49.669  0.00  0.00    +0.034 A 
ATOM     13  C   UNL     1      25.735   4.552  49.849  0.00  0.00    +0.023 A 
ATOM     14  C   UNL     1      26.902   3.974  49.338  0.00  0.00    +0.002 A 
ENDBRANCH   1  12
BRANCH   6  15
ATOM     15  C   UNL     1      20.953   5.336  46.901  0.00  0.00    +0.001 A 
ATOM     16  C   UNL     1      19.699   5.486  46.280  0.00  0.00    +0.010 A 
ATOM     17  C   UNL     1      19.398   4.833  45.079  0.00  0.00    +0.001 A 
ATOM     18  C   UNL     1      20.348   4.017  44.471  0.00  0.00    +0.000 A 
ATOM     19  C   UNL     1      21.599   3.858  45.058  0.00  0.00    +0.001 A 
ATOM     20  C   UNL     1      21.896   4.511  46.258  0.00  0.00    +0.010 A 
ENDBRANCH   6  15
TORSDOF 2
ENDMDL
MODEL 13
REMARK VINA RESULT:      -6.5      3.216      6.912
REMARK  Name = Molecule_17
REMARK  2 active torsions:
REMARK  status: ('A' for Active; 'I' for Inactive)
REMARK    1  A    between atoms: C_4  and  N_5
REMARK    2  A    between atoms: C_10  and  C_11
REMARK                            x       y       z     vdW  Elec       q    Type
REMARK                         _______ _______ _______ _____ _____    ______ ____
ROOT
ATOM      1  N   UNL     1      27.615   8.008  47.331  0.00  0.00    -0.284 N 
ATOM      2  C   UNL     1      26.274   7.667  47.476  0.00  0.00    +0.220 A 
ATOM      3  N   UNL     1      25.436   8.309  46.648  0.00  0.00    -0.223 NA
ATOM      4  C   UNL     1      24.127   8.023  46.756  0.00  0.00    +0.116 A 
ATOM      5  C   UNL     1      23.620   7.120  47.657  0.00  0.00    +0.048 A 
ATOM      6  C   UNL     1      24.541   6.500  48.475  0.00  0.00    +0.076 A 
ATOM      7  N   UNL     1      25.861   6.777  48.388  0.00  0.00    -0.214 NA
ATOM      8  H   UNL     1      27.698   8.696  46.597  0.00  0.00    +0.155 HD
ENDROOT
BRANCH   1  12
ATOM      9  C   UNL     1      31.213   6.705  49.117  0.00  0.00    +0.000 A 
ATOM     10  C   UNL     1      30.371   5.774  48.518  0.00  0.00    +0.002 A 
ATOM     11  C   UNL     1      29.177   6.188  47.916  0.00  0.00    +0.023 A 
ATOM     12  C   UNL     1      28.805   7.535  47.894  0.00  0.00    +0.034 A 
ATOM     13  C   UNL     1      29.666   8.457  48.513  0.00  0.00    +0.023 A 
ATOM     14  C   UNL     1      30.860   8.050  49.116  0.00  0.00    +0.002 A 
ENDBRANCH   1  12
BRANCH   6  15
ATOM     15  C   UNL     1      24.163   5.510  49.504  0.00  0.00    +0.001 A 
ATOM     16  C   UNL     1      23.766   5.890  50.800  0.00  0.00    +0.010 A 
ATOM     17  C   UNL     1      23.417   4.936  51.764  0.00  0.00    +0.001 A 
ATOM     18  C   UNL     1      23.455   3.580  51.450  0.00  0.00    +0.000 A 
ATOM     19  C   UNL     1      23.836   3.177  50.175  0.00  0.00    +0.001 A 
ATOM     20  C   UNL     1      24.184   4.132  49.214  0.00  0.00    +0.010 A 
ENDBRANCH   6  15
TORSDOF 2
ENDMDL
MODEL 14
REMARK VINA RESULT:      -6.5      3.487      3.898
REMARK  Name = Molecule_17
REMARK  2 active torsions:
REMARK  status: ('A' for Active; 'I' for Inactive)
REMARK    1  A    between atoms: C_4  and  N_5
REMARK    2  A    between atoms: C_10  and  C_11
REMARK                            x       y       z     vdW  Elec       q    Type
REMARK                         _______ _______ _______ _____ _____    ______ ____
ROOT
ATOM      1  N   UNL     1      20.456   5.967  47.628  0.00  0.00    -0.284 N 
ATOM      2  C   UNL     1      21.366   5.986  48.680  0.00  0.00    +0.220 A 
ATOM      3  N   UNL     1      20.846   6.323  49.870  0.00  0.00    -0.223 NA
ATOM      4  C   UNL     1      21.689   6.366  50.917  0.00  0.00    +0.116 A 
ATOM      5  C   UNL     1      23.028   6.086  50.825  0.00  0.00    +0.048 A 
ATOM      6  C   UNL     1      23.491   5.748  49.571  0.00  0.00    +0.076 A 
ATOM      7  N   UNL     1      22.664   5.704  48.502  0.00  0.00    -0.214 NA
ATOM      8  H   UNL     1      19.544   6.216  47.983  0.00  0.00    +0.155 HD
ENDROOT
BRANCH   1  12
ATOM      9  C   UNL     1      20.753   4.964  43.537  0.00  0.00    +0.000 A 
ATOM     10  C   UNL     1      20.593   3.952  44.478  0.00  0.00    +0.002 A 
ATOM     11  C   UNL     1      20.488   4.266  45.839  0.00  0.00    +0.023 A 
ATOM     12  C   UNL     1      20.532   5.592  46.283  0.00  0.00    +0.034 A 
ATOM     13  C   UNL     1      20.702   6.596  45.315  0.00  0.00    +0.023 A 
ATOM     14  C   UNL     1      20.810   6.288  43.955  0.00  0.00    +0.002 A 
ENDBRANCH   1  12
BRANCH   6  15
ATOM     15  C   UNL     1      24.907   5.426  49.295  0.00  0.00    +0.001 A 
ATOM     16  C   UNL     1      25.802   6.374  48.769  0.00  0.00    +0.010 A 
ATOM     17  C   UNL     1      27.139   6.049  48.509  0.00  0.00    +0.001 A 
ATOM     18  C   UNL     1      27.609   4.765  48.774  0.00  0.00    +0.000 A 
ATOM     19  C   UNL     1      26.747   3.810  49.303  0.00  0.00    +0.001 A 
ATOM     20  C   UNL     1      25.413   4.139  49.561  0.00  0.00    +0.010 A 
ENDBRANCH   6  15
TORSDOF 2
ENDMDL
MODEL 15
REMARK VINA RESULT:      -6.4      3.485      3.742
REMARK  Name = Molecule_17
REMARK  2 active torsions:
REMARK  status: ('A' for Active; 'I' for Inactive)
REMARK    1  A    between atoms: C_4  and  N_5
REMARK    2  A    between atoms: C_10  and  C_11
REMARK                            x       y       z     vdW  Elec       q    Type
REMARK                         _______ _______ _______ _____ _____    ______ ____
ROOT
ATOM      1  N   UNL     1      20.522   6.199  47.546  0.00  0.00    -0.284 N 
ATOM      2  C   UNL     1      21.415   6.184  48.614  0.00  0.00    +0.220 A 
ATOM      3  N   UNL     1      20.893   6.558  49.792  0.00  0.00    -0.223 NA
ATOM      4  C   UNL     1      21.719   6.571  50.852  0.00  0.00    +0.116 A 
ATOM      5  C   UNL     1      23.044   6.223  50.785  0.00  0.00    +0.048 A 
ATOM      6  C   UNL     1      23.510   5.850  49.542  0.00  0.00    +0.076 A 
ATOM      7  N   UNL     1      22.700   5.836  48.461  0.00  0.00    -0.214 NA
ATOM      8  H   UNL     1      19.619   6.496  47.884  0.00  0.00    +0.155 HD
ENDROOT
BRANCH   1  12
ATOM      9  C   UNL     1      20.685   4.889  43.536  0.00  0.00    +0.000 A 
ATOM     10  C   UNL     1      20.827   6.244  43.818  0.00  0.00    +0.002 A 
ATOM     11  C   UNL     1      20.781   6.696  45.142  0.00  0.00    +0.023 A 
ATOM     12  C   UNL     1      20.601   5.807  46.206  0.00  0.00    +0.034 A 
ATOM     13  C   UNL     1      20.451   4.445  45.897  0.00  0.00    +0.023 A 
ATOM     14  C   UNL     1      20.495   3.987  44.576  0.00  0.00    +0.002 A 
ENDBRANCH   1  12
BRANCH   6  15
ATOM     15  C   UNL     1      24.913   5.456  49.294  0.00  0.00    +0.001 A 
ATOM     16  C   UNL     1      25.402   4.179  49.628  0.00  0.00    +0.010 A 
ATOM     17  C   UNL     1      26.736   3.826  49.391  0.00  0.00    +0.001 A 
ATOM     18  C   UNL     1      27.608   4.742  48.810  0.00  0.00    +0.000 A 
ATOM     19  C   UNL     1      27.149   6.008  48.462  0.00  0.00    +0.001 A 
ATOM     20  C   UNL     1      25.816   6.358  48.700  0.00  0.00    +0.010 A 
ENDBRANCH   6  15
TORSDOF 2
ENDMDL
MODEL 16
REMARK VINA RESULT:      -6.3      2.669      5.898
REMARK  Name = Molecule_17
REMARK  2 active torsions:
REMARK  status: ('A' for Active; 'I' for Inactive)
REMARK    1  A    between atoms: C_4  and  N_5
REMARK    2  A    between atoms: C_10  and  C_11
REMARK                            x       y       z     vdW  Elec       q    Type
REMARK                         _______ _______ _______ _____ _____    ______ ____
ROOT
ATOM      1  N   UNL     1      27.695   6.032  48.855  0.00  0.00    -0.284 N 
ATOM      2  C   UNL     1      26.597   5.207  49.078  0.00  0.00    +0.220 A 
ATOM      3  N   UNL     1      26.897   3.968  49.495  0.00  0.00    -0.223 NA
ATOM      4  C   UNL     1      25.870   3.129  49.714  0.00  0.00    +0.116 A 
ATOM      5  C   UNL     1      24.555   3.477  49.535  0.00  0.00    +0.048 A 
ATOM      6  C   UNL     1      24.324   4.766  49.104  0.00  0.00    +0.076 A 
ATOM      7  N   UNL     1      25.341   5.625  48.871  0.00  0.00    -0.214 NA
ATOM      8  H   UNL     1      28.537   5.515  49.065  0.00  0.00    +0.155 HD
ENDROOT
BRANCH   1  12
ATOM      9  C   UNL     1      28.148  10.068  47.700  0.00  0.00    +0.000 A 
ATOM     10  C   UNL     1      27.656   9.771  48.967  0.00  0.00    +0.002 A 
ATOM     11  C   UNL     1      27.504   8.439  49.369  0.00  0.00    +0.023 A 
ATOM     12  C   UNL     1      27.847   7.381  48.521  0.00  0.00    +0.034 A 
ATOM     13  C   UNL     1      28.334   7.705  47.243  0.00  0.00    +0.023 A 
ATOM     14  C   UNL     1      28.487   9.034  46.835  0.00  0.00    +0.002 A 
ENDBRANCH   1  12
BRANCH   6  15
ATOM     15  C   UNL     1      22.968   5.299  48.853  0.00  0.00    +0.001 A 
ATOM     16  C   UNL     1      22.167   5.825  49.883  0.00  0.00    +0.010 A 
ATOM     17  C   UNL     1      20.883   6.320  49.626  0.00  0.00    +0.001 A 
ATOM     18  C   UNL     1      20.374   6.302  48.331  0.00  0.00    +0.000 A 
ATOM     19  C   UNL     1      21.148   5.795  47.292  0.00  0.00    +0.001 A 
ATOM     20  C   UNL     1      22.430   5.301  47.551  0.00  0.00    +0.010 A 
ENDBRANCH   6  15
TORSDOF 2
ENDMDL
MODEL 17
REMARK VINA RESULT:      -6.3      2.799      3.290
REMARK  Name = Molecule_17
REMARK  2 active torsions:
REMARK  status: ('A' for Active; 'I' for Inactive)
REMARK    1  A    between atoms: C_4  and  N_5
REMARK    2  A    between atoms: C_10  and  C_11
REMARK                            x       y       z     vdW  Elec       q    Type
REMARK                         _______ _______ _______ _____ _____    ______ ____
ROOT
ATOM      1  N   UNL     1      22.405   5.136  48.055  0.00  0.00    -0.284 N 
ATOM      2  C   UNL     1      23.593   4.883  48.735  0.00  0.00    +0.220 A 
ATOM      3  N   UNL     1      23.475   4.067  49.793  0.00  0.00    -0.223 NA
ATOM      4  C   UNL     1      24.593   3.801  50.490  0.00  0.00    +0.116 A 
ATOM      5  C   UNL     1      25.824   4.316  50.174  0.00  0.00    +0.048 A 
ATOM      6  C   UNL     1      25.868   5.147  49.075  0.00  0.00    +0.076 A 
ATOM      7  N   UNL     1      24.756   5.434  48.363  0.00  0.00    -0.214 NA
ATOM      8  H   UNL     1      21.659   4.629  48.508  0.00  0.00    +0.155 HD
ENDROOT
BRANCH   1  12
ATOM      9  C   UNL     1      21.487   7.340  44.573  0.00  0.00    +0.000 A 
ATOM     10  C   UNL     1      21.661   5.963  44.483  0.00  0.00    +0.002 A 
ATOM     11  C   UNL     1      21.961   5.215  45.629  0.00  0.00    +0.023 A 
ATOM     12  C   UNL     1      22.084   5.824  46.881  0.00  0.00    +0.034 A 
ATOM     13  C   UNL     1      21.913   7.217  46.946  0.00  0.00    +0.023 A 
ATOM     14  C   UNL     1      21.615   7.970  45.806  0.00  0.00    +0.002 A 
ENDBRANCH   1  12
BRANCH   6  15
ATOM     15  C   UNL     1      27.112   5.792  48.604  0.00  0.00    +0.001 A 
ATOM     16  C   UNL     1      28.322   5.086  48.481  0.00  0.00    +0.010 A 
ATOM     17  C   UNL     1      29.492   5.715  48.039  0.00  0.00    +0.001 A 
ATOM     18  C   UNL     1      29.473   7.067  47.705  0.00  0.00    +0.000 A 
ATOM     19  C   UNL     1      28.288   7.787  47.809  0.00  0.00    +0.001 A 
ATOM     20  C   UNL     1      27.122   7.156  48.251  0.00  0.00    +0.010 A 
ENDBRANCH   6  15
TORSDOF 2
ENDMDL
MODEL 18
REMARK VINA RESULT:      -6.2      3.367      4.950
REMARK  Name = Molecule_17
REMARK  2 active torsions:
REMARK  status: ('A' for Active; 'I' for Inactive)
REMARK    1  A    between atoms: C_4  and  N_5
REMARK    2  A    between atoms: C_10  and  C_11
REMARK                            x       y       z     vdW  Elec       q    Type
REMARK                         _______ _______ _______ _____ _____    ______ ____
ROOT
ATOM      1  N   UNL     1      24.373   9.548  46.941  0.00  0.00    -0.284 N 
ATOM      2  C   UNL     1      24.010   8.688  47.972  0.00  0.00    +0.220 A 
ATOM      3  N   UNL     1      23.010   9.130  48.751  0.00  0.00    -0.223 NA
ATOM      4  C   UNL     1      22.631   8.339  49.769  0.00  0.00    +0.116 A 
ATOM      5  C   UNL     1      23.208   7.124  50.042  0.00  0.00    +0.048 A 
ATOM      6  C   UNL     1      24.229   6.737  49.200  0.00  0.00    +0.076 A 
ATOM      7  N   UNL     1      24.632   7.518  48.174  0.00  0.00    -0.214 NA
ATOM      8  H   UNL     1      23.784  10.367  46.979  0.00  0.00    +0.155 HD
ENDROOT
BRANCH   1  12
ATOM      9  C   UNL     1      26.948   9.234  43.609  0.00  0.00    +0.000 A 
ATOM     10  C   UNL     1      27.318  10.035  44.685  0.00  0.00    +0.002 A 
ATOM     11  C   UNL     1      26.479  10.147  45.800  0.00  0.00    +0.023 A 
ATOM     12  C   UNL     1      25.264   9.458  45.867  0.00  0.00    +0.034 A 
ATOM     13  C   UNL     1      24.907   8.662  44.766  0.00  0.00    +0.023 A 
ATOM     14  C   UNL     1      25.741   8.546  43.648  0.00  0.00    +0.002 A 
ENDBRANCH   1  12
BRANCH   6  15
ATOM     15  C   UNL     1      24.962   5.463  49.359  0.00  0.00    +0.001 A 
ATOM     16  C   UNL     1      24.338   4.293  49.828  0.00  0.00    +0.010 A 
ATOM     17  C   UNL     1      25.051   3.097  49.977  0.00  0.00    +0.001 A 
ATOM     18  C   UNL     1      26.405   3.047  49.656  0.00  0.00    +0.000 A 
ATOM     19  C   UNL     1      27.045   4.187  49.182  0.00  0.00    +0.001 A 
ATOM     20  C   UNL     1      26.330   5.379  49.034  0.00  0.00    +0.010 A 
ENDBRANCH   6  15
TORSDOF 2
ENDMDL
MODEL 19
REMARK VINA RESULT:      -6.1      2.064      3.850
REMARK  Name = Molecule_17
REMARK  2 active torsions:
REMARK  status: ('A' for Active; 'I' for Inactive)
REMARK    1  A    between atoms: C_4  and  N_5
REMARK    2  A    between atoms: C_10  and  C_11
REMARK                            x       y       z     vdW  Elec       q    Type
REMARK                         _______ _______ _______ _____ _____    ______ ____
ROOT
ATOM      1  N   UNL     1      23.346   9.682  48.026  0.00  0.00    -0.284 N 
ATOM      2  C   UNL     1      24.508   8.920  47.944  0.00  0.00    +0.220 A 
ATOM      3  N   UNL     1      25.545   9.535  47.355  0.00  0.00    -0.223 NA
ATOM      4  C   UNL     1      26.687   8.836  47.241  0.00  0.00    +0.116 A 
ATOM      5  C   UNL     1      26.838   7.549  47.692  0.00  0.00    +0.048 A 
ATOM      6  C   UNL     1      25.730   6.983  48.285  0.00  0.00    +0.076 A 
ATOM      7  N   UNL     1      24.568   7.664  48.405  0.00  0.00    -0.214 NA
ATOM      8  H   UNL     1      23.522  10.587  47.615  0.00  0.00    +0.155 HD
ENDROOT
BRANCH   1  12
ATOM      9  C   UNL     1      19.642   9.022  49.944  0.00  0.00    +0.000 A 
ATOM     10  C   UNL     1      19.776  10.093  49.067  0.00  0.00    +0.002 A 
ATOM     11  C   UNL     1      20.995  10.325  48.418  0.00  0.00    +0.023 A 
ATOM     12  C   UNL     1      22.097   9.489  48.625  0.00  0.00    +0.034 A 
ATOM     13  C   UNL     1      21.942   8.419  49.521  0.00  0.00    +0.023 A 
ATOM     14  C   UNL     1      20.727   8.183  50.173  0.00  0.00    +0.002 A 
ENDBRANCH   1  12
BRANCH   6  15
ATOM     15  C   UNL     1      25.718   5.604  48.817  0.00  0.00    +0.001 A 
ATOM     16  C   UNL     1      26.896   4.849  48.966  0.00  0.00    +0.010 A 
ATOM     17  C   UNL     1      26.865   3.541  49.466  0.00  0.00    +0.001 A 
ATOM     18  C   UNL     1      25.652   2.962  49.830  0.00  0.00    +0.000 A 
ATOM     19  C   UNL     1      24.473   3.689  49.701  0.00  0.00    +0.001 A 
ATOM     20  C   UNL     1      24.508   4.995  49.201  0.00  0.00    +0.010 A 
ENDBRANCH   6  15
TORSDOF 2
ENDMDL
MODEL 20
REMARK VINA RESULT:      -6.0      3.164      5.965
REMARK  Name = Molecule_17
REMARK  2 active torsions:
REMARK  status: ('A' for Active; 'I' for Inactive)
REMARK    1  A    between atoms: C_4  and  N_5
REMARK    2  A    between atoms: C_10  and  C_11
REMARK                            x       y       z     vdW  Elec       q    Type
REMARK                         _______ _______ _______ _____ _____    ______ ____
ROOT
ATOM      1  N   UNL     1      26.011   9.700  47.153  0.00  0.00    -0.284 N 
ATOM      2  C   UNL     1      25.126   8.835  47.790  0.00  0.00    +0.220 A 
ATOM      3  N   UNL     1      23.911   9.350  48.035  0.00  0.00    -0.223 NA
ATOM      4  C   UNL     1      23.024   8.556  48.660  0.00  0.00    +0.116 A 
ATOM      5  C   UNL     1      23.299   7.270  49.049  0.00  0.00    +0.048 A 
ATOM      6  C   UNL     1      24.567   6.810  48.765  0.00  0.00    +0.076 A 
ATOM      7  N   UNL     1      25.478   7.591  48.143  0.00  0.00    -0.214 NA
ATOM      8  H   UNL     1      25.543  10.579  46.988  0.00  0.00    +0.155 HD
ENDROOT
BRANCH   1  12
ATOM      9  C   UNL     1      29.965   9.326  45.720  0.00  0.00    +0.000 A 
ATOM     10  C   UNL     1      28.940   8.632  45.085  0.00  0.00    +0.002 A 
ATOM     11  C   UNL     1      27.622   8.748  45.543  0.00  0.00    +0.023 A 
ATOM     12  C   UNL     1      27.302   9.562  46.634  0.00  0.00    +0.034 A 
ATOM     13  C   UNL     1      28.354  10.246  47.265  0.00  0.00    +0.023 A 
ATOM     14  C   UNL     1      29.673  10.134  46.813  0.00  0.00    +0.002 A 
ENDBRANCH   1  12
BRANCH   6  15
ATOM     15  C   UNL     1      25.030   5.453  49.123  0.00  0.00    +0.001 A 
ATOM     16  C   UNL     1      26.387   5.087  49.078  0.00  0.00    +0.010 A 
ATOM     17  C   UNL     1      26.806   3.795  49.415  0.00  0.00    +0.001 A 
ATOM     18  C   UNL     1      25.872   2.840  49.810  0.00  0.00    +0.000 A 
ATOM     19  C   UNL     1      24.524   3.176  49.872  0.00  0.00    +0.001 A 
ATOM     20  C   UNL     1      24.110   4.468  49.534  0.00  0.00    +0.010 A 
ENDBRANCH   6  15
TORSDOF 2
ENDMDL
