MODEL 1
REMARK VINA RESULT:      -7.7      0.000      0.000
REMARK  Name = Molecule_16
REMARK  2 active torsions:
REMARK  status: ('A' for Active; 'I' for Inactive)
REMARK    1  A    between atoms: C_1  and  C_2
REMARK    2  A    between atoms: N_10  and  C_11
REMARK                            x       y       z     vdW  Elec       q    Type
REMARK                         _______ _______ _______ _____ _____    ______ ____
ROOT
ATOM      1  C   UNL     1      32.125   4.989  48.248  0.00  0.00    +0.044 C 
ATOM      2  C   UNL     1      30.966   5.874  47.901  0.00  0.00    -0.050 A 
ATOM      3  C   UNL     1      31.149   7.011  47.117  0.00  0.00    +0.005 A 
ATOM      4  C   UNL     1      30.057   7.819  46.786  0.00  0.00    +0.029 A 
ATOM      5  C   UNL     1      28.766   7.520  47.203  0.00  0.00    +0.076 A 
ATOM      6  N   UNL     1      27.776   8.346  46.854  0.00  0.00    -0.235 NA
ATOM      7  C   UNL     1      26.551   8.026  47.277  0.00  0.00    +0.223 A 
ATOM      8  N   UNL     1      26.220   6.954  48.003  0.00  0.00    -0.220 NA
ATOM      9  C   UNL     1      27.219   6.118  48.339  0.00  0.00    +0.134 A 
ATOM     10  N   UNL     1      26.919   4.937  49.074  0.00  0.00    -0.299 N 
ATOM     11  C   UNL     1      28.557   6.364  47.967  0.00  0.00    +0.041 A 
ATOM     12  C   UNL     1      29.669   5.549  48.313  0.00  0.00    +0.016 A 
ATOM     13  H   UNL     1      27.292   4.141  48.565  0.00  0.00    +0.154 HD
ENDROOT
BRANCH  10  14
ATOM     14  C   UNL     1      25.728   4.611  49.761  0.00  0.00    +0.034 A 
ATOM     15  C   UNL     1      25.265   3.293  49.887  0.00  0.00    +0.026 A 
ATOM     16  C   UNL     1      24.048   3.012  50.515  0.00  0.00    +0.041 A 
ATOM     17  C   UNL     1      23.268   4.051  51.001  0.00  0.00    +0.142 A 
ATOM     18  F   UNL     1      22.102   3.763  51.598  0.00  0.00    -0.204 F 
ATOM     19  C   UNL     1      23.688   5.370  50.856  0.00  0.00    +0.078 A 
ATOM     20 CL   UNL     1      22.717   6.670  51.433  0.00  0.00    -0.081 Cl
ATOM     21  C   UNL     1      24.905   5.650  50.228  0.00  0.00    +0.046 A 
ENDBRANCH  10  14
TORSDOF 1
ENDMDL
MODEL 2
REMARK VINA RESULT:      -7.6      1.638      1.898
REMARK  Name = Molecule_16
REMARK  2 active torsions:
REMARK  status: ('A' for Active; 'I' for Inactive)
REMARK    1  A    between atoms: C_1  and  C_2
REMARK    2  A    between atoms: N_10  and  C_11
REMARK                            x       y       z     vdW  Elec       q    Type
REMARK                         _______ _______ _______ _____ _____    ______ ____
ROOT
ATOM      1  C   UNL     1      31.379   4.324  47.203  0.00  0.00    +0.044 C 
ATOM      2  C   UNL     1      30.761   5.582  47.734  0.00  0.00    -0.050 A 
ATOM      3  C   UNL     1      31.524   6.736  47.898  0.00  0.00    +0.005 A 
ATOM      4  C   UNL     1      30.931   7.908  48.377  0.00  0.00    +0.029 A 
ATOM      5  C   UNL     1      29.580   7.976  48.689  0.00  0.00    +0.076 A 
ATOM      6  N   UNL     1      29.089   9.129  49.151  0.00  0.00    -0.235 NA
ATOM      7  C   UNL     1      27.785   9.152  49.443  0.00  0.00    +0.223 A 
ATOM      8  N   UNL     1      26.927   8.138  49.304  0.00  0.00    -0.220 NA
ATOM      9  C   UNL     1      27.424   6.984  48.824  0.00  0.00    +0.134 A 
ATOM     10  N   UNL     1      26.545   5.883  48.614  0.00  0.00    -0.299 N 
ATOM     11  C   UNL     1      28.789   6.834  48.502  0.00  0.00    +0.041 A 
ATOM     12  C   UNL     1      29.394   5.640  48.025  0.00  0.00    +0.016 A 
ATOM     13  H   UNL     1      26.645   5.575  47.652  0.00  0.00    +0.154 HD
ENDROOT
BRANCH  10  14
ATOM     14  C   UNL     1      25.225   5.714  49.088  0.00  0.00    +0.034 A 
ATOM     15  C   UNL     1      24.102   6.126  48.355  0.00  0.00    +0.026 A 
ATOM     16  C   UNL     1      22.812   6.005  48.881  0.00  0.00    +0.041 A 
ATOM     17  C   UNL     1      22.636   5.492  50.159  0.00  0.00    +0.142 A 
ATOM     18  F   UNL     1      21.392   5.385  50.649  0.00  0.00    -0.204 F 
ATOM     19  C   UNL     1      23.737   5.110  50.919  0.00  0.00    +0.078 A 
ATOM     20 CL   UNL     1      23.532   4.494  52.515  0.00  0.00    -0.081 Cl
ATOM     21  C   UNL     1      25.026   5.232  50.392  0.00  0.00    +0.046 A 
ENDBRANCH  10  14
TORSDOF 1
ENDMDL
MODEL 3
REMARK VINA RESULT:      -7.5      1.960      2.267
REMARK  Name = Molecule_16
REMARK  2 active torsions:
REMARK  status: ('A' for Active; 'I' for Inactive)
REMARK    1  A    between atoms: C_1  and  C_2
REMARK    2  A    between atoms: N_10  and  C_11
REMARK                            x       y       z     vdW  Elec       q    Type
REMARK                         _______ _______ _______ _____ _____    ______ ____
ROOT
ATOM      1  C   UNL     1      32.085   7.536  46.434  0.00  0.00    +0.044 C 
ATOM      2  C   UNL     1      31.058   8.157  47.333  0.00  0.00    -0.050 A 
ATOM      3  C   UNL     1      31.189   9.476  47.759  0.00  0.00    +0.005 A 
ATOM      4  C   UNL     1      30.215  10.047  48.584  0.00  0.00    +0.029 A 
ATOM      5  C   UNL     1      29.090   9.343  48.994  0.00  0.00    +0.076 A 
ATOM      6  N   UNL     1      28.210   9.955  49.790  0.00  0.00    -0.235 NA
ATOM      7  C   UNL     1      27.144   9.242  50.164  0.00  0.00    +0.223 A 
ATOM      8  N   UNL     1      26.870   7.984  49.809  0.00  0.00    -0.220 NA
ATOM      9  C   UNL     1      27.753   7.378  48.995  0.00  0.00    +0.134 A 
ATOM     10  N   UNL     1      27.489   6.052  48.548  0.00  0.00    -0.299 N 
ATOM     11  C   UNL     1      28.926   8.023  48.551  0.00  0.00    +0.041 A 
ATOM     12  C   UNL     1      29.922   7.439  47.722  0.00  0.00    +0.016 A 
ATOM     13  H   UNL     1      27.531   6.044  47.534  0.00  0.00    +0.154 HD
ENDROOT
BRANCH  10  14
ATOM     14  C   UNL     1      26.538   5.133  49.045  0.00  0.00    +0.034 A 
ATOM     15  C   UNL     1      26.876   3.823  49.413  0.00  0.00    +0.026 A 
ATOM     16  C   UNL     1      25.899   2.917  49.838  0.00  0.00    +0.041 A 
ATOM     17  C   UNL     1      24.568   3.308  49.873  0.00  0.00    +0.142 A 
ATOM     18  F   UNL     1      23.644   2.425  50.280  0.00  0.00    -0.204 F 
ATOM     19  C   UNL     1      24.203   4.591  49.478  0.00  0.00    +0.078 A 
ATOM     20 CL   UNL     1      22.552   5.080  49.494  0.00  0.00    -0.081 Cl
ATOM     21  C   UNL     1      25.181   5.496  49.054  0.00  0.00    +0.046 A 
ENDBRANCH  10  14
TORSDOF 1
ENDMDL
MODEL 4
REMARK VINA RESULT:      -7.4      3.717      6.921
REMARK  Name = Molecule_16
REMARK  2 active torsions:
REMARK  status: ('A' for Active; 'I' for Inactive)
REMARK    1  A    between atoms: C_1  and  C_2
REMARK    2  A    between atoms: N_10  and  C_11
REMARK                            x       y       z     vdW  Elec       q    Type
REMARK                         _______ _______ _______ _____ _____    ______ ____
ROOT
ATOM      1  C   UNL     1      23.873   2.088  50.345  0.00  0.00    +0.044 C 
ATOM      2  C   UNL     1      23.914   3.581  50.470  0.00  0.00    -0.050 A 
ATOM      3  C   UNL     1      22.907   4.267  51.145  0.00  0.00    +0.005 A 
ATOM      4  C   UNL     1      22.967   5.658  51.269  0.00  0.00    +0.029 A 
ATOM      5  C   UNL     1      24.020   6.400  50.750  0.00  0.00    +0.076 A 
ATOM      6  N   UNL     1      24.001   7.727  50.901  0.00  0.00    -0.235 NA
ATOM      7  C   UNL     1      25.030   8.404  50.384  0.00  0.00    +0.223 A 
ATOM      8  N   UNL     1      26.079   7.881  49.744  0.00  0.00    -0.220 NA
ATOM      9  C   UNL     1      26.100   6.542  49.608  0.00  0.00    +0.134 A 
ATOM     10  N   UNL     1      27.216   5.926  48.973  0.00  0.00    -0.299 N 
ATOM     11  C   UNL     1      25.059   5.725  50.094  0.00  0.00    +0.041 A 
ATOM     12  C   UNL     1      24.992   4.312  49.958  0.00  0.00    +0.016 A 
ATOM     13  H   UNL     1      27.589   5.220  49.600  0.00  0.00    +0.154 HD
ENDROOT
BRANCH  10  14
ATOM     14  C   UNL     1      28.230   6.534  48.200  0.00  0.00    +0.034 A 
ATOM     15  C   UNL     1      27.969   7.578  47.301  0.00  0.00    +0.026 A 
ATOM     16  C   UNL     1      28.984   8.113  46.502  0.00  0.00    +0.041 A 
ATOM     17  C   UNL     1      30.267   7.589  46.576  0.00  0.00    +0.142 A 
ATOM     18  F   UNL     1      31.228   8.113  45.800  0.00  0.00    -0.204 F 
ATOM     19  C   UNL     1      30.543   6.529  47.434  0.00  0.00    +0.078 A 
ATOM     20 CL   UNL     1      32.125   5.854  47.519  0.00  0.00    -0.081 Cl
ATOM     21  C   UNL     1      29.527   5.995  48.233  0.00  0.00    +0.046 A 
ENDBRANCH  10  14
TORSDOF 1
ENDMDL
MODEL 5
REMARK VINA RESULT:      -7.3      3.632      5.175
REMARK  Name = Molecule_16
REMARK  2 active torsions:
REMARK  status: ('A' for Active; 'I' for Inactive)
REMARK    1  A    between atoms: C_1  and  C_2
REMARK    2  A    between atoms: N_10  and  C_11
REMARK                            x       y       z     vdW  Elec       q    Type
REMARK                         _______ _______ _______ _____ _____    ______ ____
ROOT
ATOM      1  C   UNL     1      28.379   7.065  47.635  0.00  0.00    +0.044 C 
ATOM      2  C   UNL     1      27.415   6.097  48.252  0.00  0.00    -0.050 A 
ATOM      3  C   UNL     1      27.856   4.875  48.754  0.00  0.00    +0.005 A 
ATOM      4  C   UNL     1      26.949   3.988  49.341  0.00  0.00    +0.029 A 
ATOM      5  C   UNL     1      25.598   4.288  49.462  0.00  0.00    +0.076 A 
ATOM      6  N   UNL     1      24.793   3.385  50.027  0.00  0.00    -0.235 NA
ATOM      7  C   UNL     1      23.500   3.710  50.122  0.00  0.00    +0.223 A 
ATOM      8  N   UNL     1      22.942   4.854  49.717  0.00  0.00    -0.220 NA
ATOM      9  C   UNL     1      23.761   5.766  49.163  0.00  0.00    +0.134 A 
ATOM     10  N   UNL     1      23.228   7.021  48.754  0.00  0.00    -0.299 N 
ATOM     11  C   UNL     1      25.140   5.526  48.990  0.00  0.00    +0.041 A 
ATOM     12  C   UNL     1      26.061   6.422  48.383  0.00  0.00    +0.016 A 
ATOM     13  H   UNL     1      23.769   7.756  49.198  0.00  0.00    +0.154 HD
ENDROOT
BRANCH  10  14
ATOM     14  C   UNL     1      21.873   7.387  48.593  0.00  0.00    +0.034 A 
ATOM     15  C   UNL     1      21.130   7.047  47.453  0.00  0.00    +0.026 A 
ATOM     16  C   UNL     1      19.810   7.481  47.295  0.00  0.00    +0.041 A 
ATOM     17  C   UNL     1      19.229   8.285  48.266  0.00  0.00    +0.142 A 
ATOM     18  F   UNL     1      17.963   8.695  48.097  0.00  0.00    -0.204 F 
ATOM     19  C   UNL     1      19.958   8.666  49.389  0.00  0.00    +0.078 A 
ATOM     20 CL   UNL     1      19.256   9.681  50.590  0.00  0.00    -0.081 Cl
ATOM     21  C   UNL     1      21.277   8.230  49.546  0.00  0.00    +0.046 A 
ENDBRANCH  10  14
TORSDOF 1
ENDMDL
MODEL 6
REMARK VINA RESULT:      -7.2      3.786      7.147
REMARK  Name = Molecule_16
REMARK  2 active torsions:
REMARK  status: ('A' for Active; 'I' for Inactive)
REMARK    1  A    between atoms: C_1  and  C_2
REMARK    2  A    between atoms: N_10  and  C_11
REMARK                            x       y       z     vdW  Elec       q    Type
REMARK                         _______ _______ _______ _____ _____    ______ ____
ROOT
ATOM      1  C   UNL     1      21.681   7.155  50.895  0.00  0.00    +0.044 C 
ATOM      2  C   UNL     1      22.803   6.195  50.637  0.00  0.00    -0.050 A 
ATOM      3  C   UNL     1      22.702   4.861  51.022  0.00  0.00    +0.005 A 
ATOM      4  C   UNL     1      23.749   3.973  50.760  0.00  0.00    +0.029 A 
ATOM      5  C   UNL     1      24.906   4.370  50.103  0.00  0.00    +0.076 A 
ATOM      6  N   UNL     1      25.867   3.465  49.897  0.00  0.00    -0.235 NA
ATOM      7  C   UNL     1      26.964   3.889  49.265  0.00  0.00    +0.223 A 
ATOM      8  N   UNL     1      27.187   5.124  48.809  0.00  0.00    -0.220 NA
ATOM      9  C   UNL     1      26.210   6.028  49.005  0.00  0.00    +0.134 A 
ATOM     10  N   UNL     1      26.374   7.349  48.501  0.00  0.00    -0.299 N 
ATOM     11  C   UNL     1      25.015   5.702  49.680  0.00  0.00    +0.041 A 
ATOM     12  C   UNL     1      23.955   6.608  49.957  0.00  0.00    +0.016 A 
ATOM     13  H   UNL     1      25.572   7.569  47.918  0.00  0.00    +0.154 HD
ENDROOT
BRANCH  10  14
ATOM     14  C   UNL     1      27.554   7.967  48.030  0.00  0.00    +0.034 A 
ATOM     15  C   UNL     1      27.952   7.907  46.687  0.00  0.00    +0.026 A 
ATOM     16  C   UNL     1      29.159   8.472  46.265  0.00  0.00    +0.041 A 
ATOM     17  C   UNL     1      29.995   9.080  47.192  0.00  0.00    +0.142 A 
ATOM     18  F   UNL     1      31.151   9.615  46.771  0.00  0.00    -0.204 F 
ATOM     19  C   UNL     1      29.639   9.120  48.537  0.00  0.00    +0.078 A 
ATOM     20 CL   UNL     1      30.677   9.851  49.700  0.00  0.00    -0.081 Cl
ATOM     21  C   UNL     1      28.431   8.555  48.956  0.00  0.00    +0.046 A 
ENDBRANCH  10  14
TORSDOF 1
ENDMDL
MODEL 7
REMARK VINA RESULT:      -7.2      1.986      3.257
REMARK  Name = Molecule_16
REMARK  2 active torsions:
REMARK  status: ('A' for Active; 'I' for Inactive)
REMARK    1  A    between atoms: C_1  and  C_2
REMARK    2  A    between atoms: N_10  and  C_11
REMARK                            x       y       z     vdW  Elec       q    Type
REMARK                         _______ _______ _______ _____ _____    ______ ____
ROOT
ATOM      1  C   UNL     1      28.951   9.644  43.813  0.00  0.00    +0.044 C 
ATOM      2  C   UNL     1      29.720   8.827  44.807  0.00  0.00    -0.050 A 
ATOM      3  C   UNL     1      31.111   8.786  44.772  0.00  0.00    +0.005 A 
ATOM      4  C   UNL     1      31.816   8.033  45.716  0.00  0.00    +0.029 A 
ATOM      5  C   UNL     1      31.173   7.320  46.719  0.00  0.00    +0.076 A 
ATOM      6  N   UNL     1      31.915   6.616  47.578  0.00  0.00    -0.235 NA
ATOM      7  C   UNL     1      31.258   5.941  48.525  0.00  0.00    +0.223 A 
ATOM      8  N   UNL     1      29.934   5.914  48.702  0.00  0.00    -0.220 NA
ATOM      9  C   UNL     1      29.193   6.637  47.844  0.00  0.00    +0.134 A 
ATOM     10  N   UNL     1      27.780   6.681  48.012  0.00  0.00    -0.299 N 
ATOM     11  C   UNL     1      29.774   7.372  46.789  0.00  0.00    +0.041 A 
ATOM     12  C   UNL     1      29.057   8.129  45.823  0.00  0.00    +0.016 A 
ATOM     13  H   UNL     1      27.496   7.653  48.067  0.00  0.00    +0.154 HD
ENDROOT
BRANCH  10  14
ATOM     14  C   UNL     1      26.967   5.848  48.813  0.00  0.00    +0.034 A 
ATOM     15  C   UNL     1      27.143   4.458  48.878  0.00  0.00    +0.026 A 
ATOM     16  C   UNL     1      26.280   3.655  49.628  0.00  0.00    +0.041 A 
ATOM     17  C   UNL     1      25.213   4.233  50.302  0.00  0.00    +0.142 A 
ATOM     18  F   UNL     1      24.393   3.447  51.015  0.00  0.00    -0.204 F 
ATOM     19  C   UNL     1      24.996   5.605  50.224  0.00  0.00    +0.078 A 
ATOM     20 CL   UNL     1      23.662   6.332  51.036  0.00  0.00    -0.081 Cl
ATOM     21  C   UNL     1      25.861   6.408  49.473  0.00  0.00    +0.046 A 
ENDBRANCH  10  14
TORSDOF 1
ENDMDL
MODEL 8
REMARK VINA RESULT:      -7.1      3.812      7.009
REMARK  Name = Molecule_16
REMARK  2 active torsions:
REMARK  status: ('A' for Active; 'I' for Inactive)
REMARK    1  A    between atoms: C_1  and  C_2
REMARK    2  A    between atoms: N_10  and  C_11
REMARK                            x       y       z     vdW  Elec       q    Type
REMARK                         _______ _______ _______ _____ _____    ______ ____
ROOT
ATOM      1  C   UNL     1      23.330   4.160  52.483  0.00  0.00    +0.044 C 
ATOM      2  C   UNL     1      23.151   5.344  51.581  0.00  0.00    -0.050 A 
ATOM      3  C   UNL     1      21.889   5.893  51.370  0.00  0.00    +0.005 A 
ATOM      4  C   UNL     1      21.738   7.008  50.539  0.00  0.00    +0.029 A 
ATOM      5  C   UNL     1      22.820   7.613  49.914  0.00  0.00    +0.076 A 
ATOM      6  N   UNL     1      22.594   8.669  49.128  0.00  0.00    -0.235 NA
ATOM      7  C   UNL     1      23.661   9.220  48.542  0.00  0.00    +0.223 A 
ATOM      8  N   UNL     1      24.929   8.824  48.678  0.00  0.00    -0.220 NA
ATOM      9  C   UNL     1      25.153   7.770  49.483  0.00  0.00    +0.134 A 
ATOM     10  N   UNL     1      26.490   7.333  49.700  0.00  0.00    -0.299 N 
ATOM     11  C   UNL     1      24.102   7.093  50.138  0.00  0.00    +0.041 A 
ATOM     12  C   UNL     1      24.254   5.953  50.973  0.00  0.00    +0.016 A 
ATOM     13  H   UNL     1      26.659   7.310  50.701  0.00  0.00    +0.154 HD
ENDROOT
BRANCH  10  14
ATOM     14  C   UNL     1      27.653   7.678  48.976  0.00  0.00    +0.034 A 
ATOM     15  C   UNL     1      28.092   6.950  47.861  0.00  0.00    +0.026 A 
ATOM     16  C   UNL     1      29.283   7.278  47.207  0.00  0.00    +0.041 A 
ATOM     17  C   UNL     1      30.062   8.324  47.681  0.00  0.00    +0.142 A 
ATOM     18  F   UNL     1      31.203   8.623  47.043  0.00  0.00    -0.204 F 
ATOM     19  C   UNL     1      29.667   9.039  48.807  0.00  0.00    +0.078 A 
ATOM     20 CL   UNL     1      30.636  10.325  49.418  0.00  0.00    -0.081 Cl
ATOM     21  C   UNL     1      28.475   8.710  49.460  0.00  0.00    +0.046 A 
ENDBRANCH  10  14
TORSDOF 1
ENDMDL
MODEL 9
REMARK VINA RESULT:      -7.1      1.649      1.791
REMARK  Name = Molecule_16
REMARK  2 active torsions:
REMARK  status: ('A' for Active; 'I' for Inactive)
REMARK    1  A    between atoms: C_1  and  C_2
REMARK    2  A    between atoms: N_10  and  C_11
REMARK                            x       y       z     vdW  Elec       q    Type
REMARK                         _______ _______ _______ _____ _____    ______ ____
ROOT
ATOM      1  C   UNL     1      31.970   4.162  47.009  0.00  0.00    +0.044 C 
ATOM      2  C   UNL     1      31.359   5.440  47.499  0.00  0.00    -0.050 A 
ATOM      3  C   UNL     1      32.115   6.608  47.574  0.00  0.00    +0.005 A 
ATOM      4  C   UNL     1      31.528   7.797  48.017  0.00  0.00    +0.029 A 
ATOM      5  C   UNL     1      30.189   7.868  48.380  0.00  0.00    +0.076 A 
ATOM      6  N   UNL     1      29.704   9.039  48.803  0.00  0.00    -0.235 NA
ATOM      7  C   UNL     1      28.413   9.064  49.146  0.00  0.00    +0.223 A 
ATOM      8  N   UNL     1      27.561   8.036  49.094  0.00  0.00    -0.220 NA
ATOM      9  C   UNL     1      28.052   6.863  48.653  0.00  0.00    +0.134 A 
ATOM     10  N   UNL     1      27.179   5.746  48.535  0.00  0.00    -0.299 N 
ATOM     11  C   UNL     1      29.405   6.710  48.284  0.00  0.00    +0.041 A 
ATOM     12  C   UNL     1      30.004   5.500  47.843  0.00  0.00    +0.016 A 
ATOM     13  H   UNL     1      27.244   5.390  47.586  0.00  0.00    +0.154 HD
ENDROOT
BRANCH  10  14
ATOM     14  C   UNL     1      25.881   5.587  49.070  0.00  0.00    +0.034 A 
ATOM     15  C   UNL     1      25.584   4.642  50.063  0.00  0.00    +0.026 A 
ATOM     16  C   UNL     1      24.276   4.465  50.523  0.00  0.00    +0.041 A 
ATOM     17  C   UNL     1      23.245   5.215  49.974  0.00  0.00    +0.142 A 
ATOM     18  F   UNL     1      21.996   5.030  50.426  0.00  0.00    -0.204 F 
ATOM     19  C   UNL     1      23.509   6.133  48.962  0.00  0.00    +0.078 A 
ATOM     20 CL   UNL     1      22.236   7.054  48.256  0.00  0.00    -0.081 Cl
ATOM     21  C   UNL     1      24.818   6.310  48.503  0.00  0.00    +0.046 A 
ENDBRANCH  10  14
TORSDOF 1
ENDMDL
MODEL 10
REMARK VINA RESULT:      -7.1      2.610      3.943
REMARK  Name = Molecule_16
REMARK  2 active torsions:
REMARK  status: ('A' for Active; 'I' for Inactive)
REMARK    1  A    between atoms: C_1  and  C_2
REMARK    2  A    between atoms: N_10  and  C_11
REMARK                            x       y       z     vdW  Elec       q    Type
REMARK                         _______ _______ _______ _____ _____    ______ ____
ROOT
ATOM      1  C   UNL     1      28.761   8.970  47.222  0.00  0.00    +0.044 C 
ATOM      2  C   UNL     1      28.318   7.625  47.712  0.00  0.00    -0.050 A 
ATOM      3  C   UNL     1      29.226   6.575  47.831  0.00  0.00    +0.005 A 
ATOM      4  C   UNL     1      28.802   5.331  48.306  0.00  0.00    +0.029 A 
ATOM      5  C   UNL     1      27.488   5.095  48.689  0.00  0.00    +0.076 A 
ATOM      6  N   UNL     1      27.159   3.876  49.124  0.00  0.00    -0.235 NA
ATOM      7  C   UNL     1      25.885   3.691  49.478  0.00  0.00    +0.223 A 
ATOM      8  N   UNL     1      24.915   4.608  49.451  0.00  0.00    -0.220 NA
ATOM      9  C   UNL     1      25.256   5.839  49.027  0.00  0.00    +0.134 A 
ATOM     10  N   UNL     1      24.273   6.868  49.019  0.00  0.00    -0.299 N 
ATOM     11  C   UNL     1      26.566   6.148  48.605  0.00  0.00    +0.041 A 
ATOM     12  C   UNL     1      26.994   7.410  48.112  0.00  0.00    +0.016 A 
ATOM     13  H   UNL     1      24.633   7.656  49.548  0.00  0.00    +0.154 HD
ENDROOT
BRANCH  10  14
ATOM     14  C   UNL     1      22.872   6.743  49.148  0.00  0.00    +0.034 A 
ATOM     15  C   UNL     1      22.214   6.859  50.382  0.00  0.00    +0.026 A 
ATOM     16  C   UNL     1      20.834   6.663  50.486  0.00  0.00    +0.041 A 
ATOM     17  C   UNL     1      20.100   6.322  49.358  0.00  0.00    +0.142 A 
ATOM     18  F   UNL     1      18.778   6.135  49.477  0.00  0.00    -0.204 F 
ATOM     19  C   UNL     1      20.735   6.165  48.130  0.00  0.00    +0.078 A 
ATOM     20 CL   UNL     1      19.839   5.720  46.728  0.00  0.00    -0.081 Cl
ATOM     21  C   UNL     1      22.115   6.362  48.027  0.00  0.00    +0.046 A 
ENDBRANCH  10  14
TORSDOF 1
ENDMDL
MODEL 11
REMARK VINA RESULT:      -7.1      4.129      6.874
REMARK  Name = Molecule_16
REMARK  2 active torsions:
REMARK  status: ('A' for Active; 'I' for Inactive)
REMARK    1  A    between atoms: C_1  and  C_2
REMARK    2  A    between atoms: N_10  and  C_11
REMARK                            x       y       z     vdW  Elec       q    Type
REMARK                         _______ _______ _______ _____ _____    ______ ____
ROOT
ATOM      1  C   UNL     1      24.573   3.065  50.150  0.00  0.00    +0.044 C 
ATOM      2  C   UNL     1      24.390   4.325  49.359  0.00  0.00    -0.050 A 
ATOM      3  C   UNL     1      23.172   4.611  48.747  0.00  0.00    +0.005 A 
ATOM      4  C   UNL     1      23.009   5.798  48.026  0.00  0.00    +0.029 A 
ATOM      5  C   UNL     1      24.029   6.733  47.906  0.00  0.00    +0.076 A 
ATOM      6  N   UNL     1      23.800   7.839  47.193  0.00  0.00    -0.235 NA
ATOM      7  C   UNL     1      24.808   8.711  47.098  0.00  0.00    +0.223 A 
ATOM      8  N   UNL     1      26.015   8.588  47.658  0.00  0.00    -0.220 NA
ATOM      9  C   UNL     1      26.235   7.479  48.387  0.00  0.00    +0.134 A 
ATOM     10  N   UNL     1      27.487   7.316  49.043  0.00  0.00    -0.299 N 
ATOM     11  C   UNL     1      25.253   6.478  48.540  0.00  0.00    +0.041 A 
ATOM     12  C   UNL     1      25.421   5.266  49.263  0.00  0.00    +0.016 A 
ATOM     13  H   UNL     1      27.311   7.147  50.028  0.00  0.00    +0.154 HD
ENDROOT
BRANCH  10  14
ATOM     14  C   UNL     1      28.684   8.038  48.838  0.00  0.00    +0.034 A 
ATOM     15  C   UNL     1      28.948   9.259  49.475  0.00  0.00    +0.026 A 
ATOM     16  C   UNL     1      30.112   9.982  49.199  0.00  0.00    +0.041 A 
ATOM     17  C   UNL     1      31.014   9.501  48.260  0.00  0.00    +0.142 A 
ATOM     18  F   UNL     1      32.125  10.208  48.006  0.00  0.00    -0.204 F 
ATOM     19  C   UNL     1      30.758   8.310  47.588  0.00  0.00    +0.078 A 
ATOM     20 CL   UNL     1      31.858   7.714  46.404  0.00  0.00    -0.081 Cl
ATOM     21  C   UNL     1      29.593   7.588  47.865  0.00  0.00    +0.046 A 
ENDBRANCH  10  14
TORSDOF 1
ENDMDL
MODEL 12
REMARK VINA RESULT:      -6.9      3.702      7.164
REMARK  Name = Molecule_16
REMARK  2 active torsions:
REMARK  status: ('A' for Active; 'I' for Inactive)
REMARK    1  A    between atoms: C_1  and  C_2
REMARK    2  A    between atoms: N_10  and  C_11
REMARK                            x       y       z     vdW  Elec       q    Type
REMARK                         _______ _______ _______ _____ _____    ______ ____
ROOT
ATOM      1  C   UNL     1      21.255   9.412  49.268  0.00  0.00    +0.044 C 
ATOM      2  C   UNL     1      21.859   8.129  49.753  0.00  0.00    -0.050 A 
ATOM      3  C   UNL     1      21.103   7.219  50.489  0.00  0.00    +0.005 A 
ATOM      4  C   UNL     1      21.674   6.018  50.920  0.00  0.00    +0.029 A 
ATOM      5  C   UNL     1      22.988   5.679  50.625  0.00  0.00    +0.076 A 
ATOM      6  N   UNL     1      23.464   4.517  51.081  0.00  0.00    -0.235 NA
ATOM      7  C   UNL     1      24.733   4.230  50.779  0.00  0.00    +0.223 A 
ATOM      8  N   UNL     1      25.564   4.985  50.056  0.00  0.00    -0.220 NA
ATOM      9  C   UNL     1      25.074   6.147  49.587  0.00  0.00    +0.134 A 
ATOM     10  N   UNL     1      25.902   6.972  48.773  0.00  0.00    -0.299 N 
ATOM     11  C   UNL     1      23.756   6.567  49.860  0.00  0.00    +0.041 A 
ATOM     12  C   UNL     1      23.179   7.793  49.431  0.00  0.00    +0.016 A 
ATOM     13  H   UNL     1      25.409   7.160  47.906  0.00  0.00    +0.154 HD
ENDROOT
BRANCH  10  14
ATOM     14  C   UNL     1      27.299   6.891  48.579  0.00  0.00    +0.034 A 
ATOM     15  C   UNL     1      27.953   5.682  48.301  0.00  0.00    +0.026 A 
ATOM     16  C   UNL     1      29.344   5.625  48.180  0.00  0.00    +0.041 A 
ATOM     17  C   UNL     1      30.099   6.776  48.363  0.00  0.00    +0.142 A 
ATOM     18  F   UNL     1      31.433   6.702  48.246  0.00  0.00    -0.204 F 
ATOM     19  C   UNL     1      29.476   7.980  48.676  0.00  0.00    +0.078 A 
ATOM     20 CL   UNL     1      30.402   9.410  48.928  0.00  0.00    -0.081 Cl
ATOM     21  C   UNL     1      28.084   8.036  48.796  0.00  0.00    +0.046 A 
ENDBRANCH  10  14
TORSDOF 1
ENDMDL
MODEL 13
REMARK VINA RESULT:      -6.9      4.627      7.493
REMARK  Name = Molecule_16
REMARK  2 active torsions:
REMARK  status: ('A' for Active; 'I' for Inactive)
REMARK    1  A    between atoms: C_1  and  C_2
REMARK    2  A    between atoms: N_10  and  C_11
REMARK                            x       y       z     vdW  Elec       q    Type
REMARK                         _______ _______ _______ _____ _____    ______ ____
ROOT
ATOM      1  C   UNL     1      19.245   9.737  50.290  0.00  0.00    +0.044 C 
ATOM      2  C   UNL     1      19.447   8.787  49.148  0.00  0.00    -0.050 A 
ATOM      3  C   UNL     1      18.571   8.781  48.065  0.00  0.00    +0.005 A 
ATOM      4  C   UNL     1      18.780   7.902  46.998  0.00  0.00    +0.029 A 
ATOM      5  C   UNL     1      19.857   7.026  46.965  0.00  0.00    +0.076 A 
ATOM      6  N   UNL     1      19.984   6.210  45.915  0.00  0.00    -0.235 NA
ATOM      7  C   UNL     1      21.031   5.380  45.923  0.00  0.00    +0.223 A 
ATOM      8  N   UNL     1      21.968   5.299  46.872  0.00  0.00    -0.220 NA
ATOM      9  C   UNL     1      21.843   6.134  47.920  0.00  0.00    +0.134 A 
ATOM     10  N   UNL     1      22.836   6.122  48.940  0.00  0.00    -0.299 N 
ATOM     11  C   UNL     1      20.767   7.038  48.032  0.00  0.00    +0.041 A 
ATOM     12  C   UNL     1      20.548   7.924  49.121  0.00  0.00    +0.016 A 
ATOM     13  H   UNL     1      23.186   7.068  49.055  0.00  0.00    +0.154 HD
ENDROOT
BRANCH  10  14
ATOM     14  C   UNL     1      23.841   5.156  49.172  0.00  0.00    +0.034 A 
ATOM     15  C   UNL     1      23.591   3.955  49.852  0.00  0.00    +0.026 A 
ATOM     16  C   UNL     1      24.622   3.051  50.125  0.00  0.00    +0.041 A 
ATOM     17  C   UNL     1      25.921   3.353  49.742  0.00  0.00    +0.142 A 
ATOM     18  F   UNL     1      26.898   2.476  50.014  0.00  0.00    -0.204 F 
ATOM     19  C   UNL     1      26.201   4.555  49.098  0.00  0.00    +0.078 A 
ATOM     20 CL   UNL     1      27.813   4.952  48.639  0.00  0.00    -0.081 Cl
ATOM     21  C   UNL     1      25.169   5.458  48.826  0.00  0.00    +0.046 A 
ENDBRANCH  10  14
TORSDOF 1
ENDMDL
MODEL 14
REMARK VINA RESULT:      -6.8      3.799      4.913
REMARK  Name = Molecule_16
REMARK  2 active torsions:
REMARK  status: ('A' for Active; 'I' for Inactive)
REMARK    1  A    between atoms: C_1  and  C_2
REMARK    2  A    between atoms: N_10  and  C_11
REMARK                            x       y       z     vdW  Elec       q    Type
REMARK                         _______ _______ _______ _____ _____    ______ ____
ROOT
ATOM      1  C   UNL     1      26.508   3.173  49.738  0.00  0.00    +0.044 C 
ATOM      2  C   UNL     1      26.571   4.551  49.151  0.00  0.00    -0.050 A 
ATOM      3  C   UNL     1      27.780   5.082  48.709  0.00  0.00    +0.005 A 
ATOM      4  C   UNL     1      27.821   6.362  48.147  0.00  0.00    +0.029 A 
ATOM      5  C   UNL     1      26.679   7.137  47.994  0.00  0.00    +0.076 A 
ATOM      6  N   UNL     1      26.802   8.354  47.457  0.00  0.00    -0.235 NA
ATOM      7  C   UNL     1      25.680   9.068  47.330  0.00  0.00    +0.223 A 
ATOM      8  N   UNL     1      24.451   8.678  47.676  0.00  0.00    -0.220 NA
ATOM      9  C   UNL     1      24.331   7.446  48.202  0.00  0.00    +0.134 A 
ATOM     10  N   UNL     1      23.039   6.960  48.548  0.00  0.00    -0.299 N 
ATOM     11  C   UNL     1      25.448   6.608  48.405  0.00  0.00    +0.041 A 
ATOM     12  C   UNL     1      25.408   5.312  48.986  0.00  0.00    +0.016 A 
ATOM     13  H   UNL     1      22.898   6.070  48.080  0.00  0.00    +0.154 HD
ENDROOT
BRANCH  10  14
ATOM     14  C   UNL     1      21.834   7.687  48.673  0.00  0.00    +0.034 A 
ATOM     15  C   UNL     1      21.310   8.071  49.915  0.00  0.00    +0.026 A 
ATOM     16  C   UNL     1      20.081   8.732  50.008  0.00  0.00    +0.041 A 
ATOM     17  C   UNL     1      19.352   8.993  48.857  0.00  0.00    +0.142 A 
ATOM     18  F   UNL     1      18.174   9.625  48.965  0.00  0.00    -0.204 F 
ATOM     19  C   UNL     1      19.833   8.589  47.615  0.00  0.00    +0.078 A 
ATOM     20 CL   UNL     1      18.926   8.886  46.182  0.00  0.00    -0.081 Cl
ATOM     21  C   UNL     1      21.062   7.929  47.524  0.00  0.00    +0.046 A 
ENDBRANCH  10  14
TORSDOF 1
ENDMDL
MODEL 15
REMARK VINA RESULT:      -6.8      2.759      3.231
REMARK  Name = Molecule_16
REMARK  2 active torsions:
REMARK  status: ('A' for Active; 'I' for Inactive)
REMARK    1  A    between atoms: C_1  and  C_2
REMARK    2  A    between atoms: N_10  and  C_11
REMARK                            x       y       z     vdW  Elec       q    Type
REMARK                         _______ _______ _______ _____ _____    ______ ____
ROOT
ATOM      1  C   UNL     1      26.911   8.828  43.772  0.00  0.00    +0.044 C 
ATOM      2  C   UNL     1      27.216   9.079  45.218  0.00  0.00    -0.050 A 
ATOM      3  C   UNL     1      28.097  10.090  45.595  0.00  0.00    +0.005 A 
ATOM      4  C   UNL     1      28.360  10.325  46.948  0.00  0.00    +0.029 A 
ATOM      5  C   UNL     1      27.754   9.586  47.955  0.00  0.00    +0.076 A 
ATOM      6  N   UNL     1      28.064   9.864  49.224  0.00  0.00    -0.235 NA
ATOM      7  C   UNL     1      27.463   9.128  50.163  0.00  0.00    +0.223 A 
ATOM      8  N   UNL     1      26.574   8.153  49.954  0.00  0.00    -0.220 NA
ATOM      9  C   UNL     1      26.255   7.887  48.675  0.00  0.00    +0.134 A 
ATOM     10  N   UNL     1      25.281   6.888  48.395  0.00  0.00    -0.299 N 
ATOM     11  C   UNL     1      26.842   8.584  47.598  0.00  0.00    +0.041 A 
ATOM     12  C   UNL     1      26.584   8.338  46.222  0.00  0.00    +0.016 A 
ATOM     13  H   UNL     1      24.560   7.301  47.812  0.00  0.00    +0.154 HD
ENDROOT
BRANCH  10  14
ATOM     14  C   UNL     1      24.756   5.907  49.266  0.00  0.00    +0.034 A 
ATOM     15  C   UNL     1      25.413   4.694  49.519  0.00  0.00    +0.026 A 
ATOM     16  C   UNL     1      24.836   3.716  50.334  0.00  0.00    +0.041 A 
ATOM     17  C   UNL     1      23.580   3.932  50.884  0.00  0.00    +0.142 A 
ATOM     18  F   UNL     1      23.040   2.982  51.661  0.00  0.00    -0.204 F 
ATOM     19  C   UNL     1      22.892   5.113  50.618  0.00  0.00    +0.078 A 
ATOM     20 CL   UNL     1      21.323   5.383  51.276  0.00  0.00    -0.081 Cl
ATOM     21  C   UNL     1      23.471   6.090  49.803  0.00  0.00    +0.046 A 
ENDBRANCH  10  14
TORSDOF 1
ENDMDL
MODEL 16
REMARK VINA RESULT:      -6.7      2.118      3.835
REMARK  Name = Molecule_16
REMARK  2 active torsions:
REMARK  status: ('A' for Active; 'I' for Inactive)
REMARK    1  A    between atoms: C_1  and  C_2
REMARK    2  A    between atoms: N_10  and  C_11
REMARK                            x       y       z     vdW  Elec       q    Type
REMARK                         _______ _______ _______ _____ _____    ______ ____
ROOT
ATOM      1  C   UNL     1      24.915   9.213  43.451  0.00  0.00    +0.044 C 
ATOM      2  C   UNL     1      25.979   8.836  44.437  0.00  0.00    -0.050 A 
ATOM      3  C   UNL     1      27.323   9.066  44.157  0.00  0.00    +0.005 A 
ATOM      4  C   UNL     1      28.304   8.724  45.093  0.00  0.00    +0.029 A 
ATOM      5  C   UNL     1      27.986   8.167  46.324  0.00  0.00    +0.076 A 
ATOM      6  N   UNL     1      28.980   7.859  47.161  0.00  0.00    -0.235 NA
ATOM      7  C   UNL     1      28.632   7.322  48.334  0.00  0.00    +0.223 A 
ATOM      8  N   UNL     1      27.387   7.076  48.752  0.00  0.00    -0.220 NA
ATOM      9  C   UNL     1      26.389   7.402  47.911  0.00  0.00    +0.134 A 
ATOM     10  N   UNL     1      25.041   7.203  48.322  0.00  0.00    -0.299 N 
ATOM     11  C   UNL     1      26.636   7.955  46.637  0.00  0.00    +0.041 A 
ATOM     12  C   UNL     1      25.640   8.292  45.681  0.00  0.00    +0.016 A 
ATOM     13  H   UNL     1      24.545   8.083  48.222  0.00  0.00    +0.154 HD
ENDROOT
BRANCH  10  14
ATOM     14  C   UNL     1      24.561   6.449  49.416  0.00  0.00    +0.034 A 
ATOM     15  C   UNL     1      24.285   7.024  50.666  0.00  0.00    +0.026 A 
ATOM     16  C   UNL     1      23.875   6.238  51.747  0.00  0.00    +0.041 A 
ATOM     17  C   UNL     1      23.762   4.863  51.596  0.00  0.00    +0.142 A 
ATOM     18  F   UNL     1      23.370   4.125  52.644  0.00  0.00    -0.204 F 
ATOM     19  C   UNL     1      24.066   4.265  50.376  0.00  0.00    +0.078 A 
ATOM     20 CL   UNL     1      23.952   2.558  50.182  0.00  0.00    -0.081 Cl
ATOM     21  C   UNL     1      24.475   5.052  49.295  0.00  0.00    +0.046 A 
ENDBRANCH  10  14
TORSDOF 1
ENDMDL
MODEL 17
REMARK VINA RESULT:      -6.6      3.733      4.831
REMARK  Name = Molecule_16
REMARK  2 active torsions:
REMARK  status: ('A' for Active; 'I' for Inactive)
REMARK    1  A    between atoms: C_1  and  C_2
REMARK    2  A    between atoms: N_10  and  C_11
REMARK                            x       y       z     vdW  Elec       q    Type
REMARK                         _______ _______ _______ _____ _____    ______ ____
ROOT
ATOM      1  C   UNL     1      26.489   3.093  49.801  0.00  0.00    +0.044 C 
ATOM      2  C   UNL     1      26.439   4.468  49.208  0.00  0.00    -0.050 A 
ATOM      3  C   UNL     1      27.612   5.145  48.881  0.00  0.00    +0.005 A 
ATOM      4  C   UNL     1      27.551   6.421  48.313  0.00  0.00    +0.029 A 
ATOM      5  C   UNL     1      26.343   7.051  48.041  0.00  0.00    +0.076 A 
ATOM      6  N   UNL     1      26.367   8.274  47.506  0.00  0.00    -0.235 NA
ATOM      7  C   UNL     1      25.184   8.846  47.264  0.00  0.00    +0.223 A 
ATOM      8  N   UNL     1      23.984   8.306  47.492  0.00  0.00    -0.220 NA
ATOM      9  C   UNL     1      23.966   7.068  48.017  0.00  0.00    +0.134 A 
ATOM     10  N   UNL     1      22.715   6.426  48.241  0.00  0.00    -0.299 N 
ATOM     11  C   UNL     1      25.151   6.373  48.336  0.00  0.00    +0.041 A 
ATOM     12  C   UNL     1      25.214   5.081  48.924  0.00  0.00    +0.016 A 
ATOM     13  H   UNL     1      22.730   5.527  47.771  0.00  0.00    +0.154 HD
ENDROOT
BRANCH  10  14
ATOM     14  C   UNL     1      21.424   7.000  48.241  0.00  0.00    +0.034 A 
ATOM     15  C   UNL     1      20.520   6.824  47.183  0.00  0.00    +0.026 A 
ATOM     16  C   UNL     1      19.275   7.459  47.183  0.00  0.00    +0.041 A 
ATOM     17  C   UNL     1      18.932   8.302  48.232  0.00  0.00    +0.142 A 
ATOM     18  F   UNL     1      17.735   8.906  48.214  0.00  0.00    -0.204 F 
ATOM     19  C   UNL     1      19.827   8.522  49.275  0.00  0.00    +0.078 A 
ATOM     20 CL   UNL     1      19.423   9.582  50.571  0.00  0.00    -0.081 Cl
ATOM     21  C   UNL     1      21.071   7.884  49.274  0.00  0.00    +0.046 A 
ENDBRANCH  10  14
TORSDOF 1
ENDMDL
MODEL 18
REMARK VINA RESULT:      -6.5      4.096      7.068
REMARK  Name = Molecule_16
REMARK  2 active torsions:
REMARK  status: ('A' for Active; 'I' for Inactive)
REMARK    1  A    between atoms: C_1  and  C_2
REMARK    2  A    between atoms: N_10  and  C_11
REMARK                            x       y       z     vdW  Elec       q    Type
REMARK                         _______ _______ _______ _____ _____    ______ ____
ROOT
ATOM      1  C   UNL     1      21.753   5.701  45.494  0.00  0.00    +0.044 C 
ATOM      2  C   UNL     1      22.104   5.976  46.925  0.00  0.00    -0.050 A 
ATOM      3  C   UNL     1      21.117   6.010  47.906  0.00  0.00    +0.005 A 
ATOM      4  C   UNL     1      21.461   6.251  49.240  0.00  0.00    +0.029 A 
ATOM      5  C   UNL     1      22.776   6.447  49.639  0.00  0.00    +0.076 A 
ATOM      6  N   UNL     1      23.024   6.681  50.930  0.00  0.00    -0.235 NA
ATOM      7  C   UNL     1      24.302   6.868  51.271  0.00  0.00    +0.223 A 
ATOM      8  N   UNL     1      25.354   6.829  50.449  0.00  0.00    -0.220 NA
ATOM      9  C   UNL     1      25.100   6.578  49.151  0.00  0.00    +0.134 A 
ATOM     10  N   UNL     1      26.186   6.481  48.237  0.00  0.00    -0.299 N 
ATOM     11  C   UNL     1      23.788   6.386  48.670  0.00  0.00    +0.041 A 
ATOM     12  C   UNL     1      23.437   6.152  47.313  0.00  0.00    +0.016 A 
ATOM     13  H   UNL     1      26.118   5.591  47.755  0.00  0.00    +0.154 HD
ENDROOT
BRANCH  10  14
ATOM     14  C   UNL     1      27.529   6.876  48.427  0.00  0.00    +0.034 A 
ATOM     15  C   UNL     1      27.891   8.195  48.739  0.00  0.00    +0.026 A 
ATOM     16  C   UNL     1      29.233   8.568  48.855  0.00  0.00    +0.041 A 
ATOM     17  C   UNL     1      30.230   7.628  48.634  0.00  0.00    +0.142 A 
ATOM     18  F   UNL     1      31.513   8.003  48.747  0.00  0.00    -0.204 F 
ATOM     19  C   UNL     1      29.898   6.321  48.288  0.00  0.00    +0.078 A 
ATOM     20 CL   UNL     1      31.125   5.151  47.988  0.00  0.00    -0.081 Cl
ATOM     21  C   UNL     1      28.554   5.950  48.173  0.00  0.00    +0.046 A 
ENDBRANCH  10  14
TORSDOF 1
ENDMDL
MODEL 19
REMARK VINA RESULT:      -6.1      4.777      7.626
REMARK  Name = Molecule_16
REMARK  2 active torsions:
REMARK  status: ('A' for Active; 'I' for Inactive)
REMARK    1  A    between atoms: C_1  and  C_2
REMARK    2  A    between atoms: N_10  and  C_11
REMARK                            x       y       z     vdW  Elec       q    Type
REMARK                         _______ _______ _______ _____ _____    ______ ____
ROOT
ATOM      1  C   UNL     1      18.565   6.523  44.865  0.00  0.00    +0.044 C 
ATOM      2  C   UNL     1      18.990   7.027  46.211  0.00  0.00    -0.050 A 
ATOM      3  C   UNL     1      18.270   8.028  46.857  0.00  0.00    +0.005 A 
ATOM      4  C   UNL     1      18.667   8.477  48.120  0.00  0.00    +0.029 A 
ATOM      5  C   UNL     1      19.767   7.943  48.779  0.00  0.00    +0.076 A 
ATOM      6  N   UNL     1      20.090   8.430  49.980  0.00  0.00    -0.235 NA
ATOM      7  C   UNL     1      21.155   7.892  50.579  0.00  0.00    +0.223 A 
ATOM      8  N   UNL     1      21.919   6.907  50.099  0.00  0.00    -0.220 NA
ATOM      9  C   UNL     1      21.580   6.409  48.895  0.00  0.00    +0.134 A 
ATOM     10  N   UNL     1      22.331   5.328  48.354  0.00  0.00    -0.299 N 
ATOM     11  C   UNL     1      20.487   6.912  48.159  0.00  0.00    +0.041 A 
ATOM     12  C   UNL     1      20.089   6.465  46.870  0.00  0.00    +0.016 A 
ATOM     13  H   UNL     1      21.688   4.577  48.126  0.00  0.00    +0.154 HD
ENDROOT
BRANCH  10  14
ATOM     14  C   UNL     1      23.587   4.837  48.774  0.00  0.00    +0.034 A 
ATOM     15  C   UNL     1      23.725   3.661  49.526  0.00  0.00    +0.026 A 
ATOM     16  C   UNL     1      24.977   3.238  49.983  0.00  0.00    +0.041 A 
ATOM     17  C   UNL     1      26.102   4.005  49.715  0.00  0.00    +0.142 A 
ATOM     18  F   UNL     1      27.294   3.585  50.163  0.00  0.00    -0.204 F 
ATOM     19  C   UNL     1      25.987   5.195  49.003  0.00  0.00    +0.078 A 
ATOM     20 CL   UNL     1      27.372   6.167  48.683  0.00  0.00    -0.081 Cl
ATOM     21  C   UNL     1      24.734   5.616  48.546  0.00  0.00    +0.046 A 
ENDBRANCH  10  14
TORSDOF 1
ENDMDL
MODEL 20
REMARK VINA RESULT:      -6.1      2.523      3.814
REMARK  Name = Molecule_16
REMARK  2 active torsions:
REMARK  status: ('A' for Active; 'I' for Inactive)
REMARK    1  A    between atoms: C_1  and  C_2
REMARK    2  A    between atoms: N_10  and  C_11
REMARK                            x       y       z     vdW  Elec       q    Type
REMARK                         _______ _______ _______ _____ _____    ______ ____
ROOT
ATOM      1  C   UNL     1      30.334   8.975  46.722  0.00  0.00    +0.044 C 
ATOM      2  C   UNL     1      29.599   7.789  47.271  0.00  0.00    -0.050 A 
ATOM      3  C   UNL     1      30.231   6.554  47.396  0.00  0.00    +0.005 A 
ATOM      4  C   UNL     1      29.539   5.461  47.925  0.00  0.00    +0.029 A 
ATOM      5  C   UNL     1      28.222   5.561  48.356  0.00  0.00    +0.076 A 
ATOM      6  N   UNL     1      27.626   4.469  48.841  0.00  0.00    -0.235 NA
ATOM      7  C   UNL     1      26.358   4.606  49.241  0.00  0.00    +0.223 A 
ATOM      8  N   UNL     1      25.638   5.730  49.213  0.00  0.00    -0.220 NA
ATOM      9  C   UNL     1      26.249   6.830  48.738  0.00  0.00    +0.134 A 
ATOM     10  N   UNL     1      25.544   8.067  48.726  0.00  0.00    -0.299 N 
ATOM     11  C   UNL     1      27.578   6.803  48.266  0.00  0.00    +0.041 A 
ATOM     12  C   UNL     1      28.279   7.911  47.718  0.00  0.00    +0.016 A 
ATOM     13  H   UNL     1      26.103   8.757  49.217  0.00  0.00    +0.154 HD
ENDROOT
BRANCH  10  14
ATOM     14  C   UNL     1      24.160   8.287  48.903  0.00  0.00    +0.034 A 
ATOM     15  C   UNL     1      23.474   9.331  48.264  0.00  0.00    +0.026 A 
ATOM     16  C   UNL     1      22.118   9.563  48.512  0.00  0.00    +0.041 A 
ATOM     17  C   UNL     1      21.439   8.767  49.424  0.00  0.00    +0.142 A 
ATOM     18  F   UNL     1      20.139   9.006  49.652  0.00  0.00    -0.204 F 
ATOM     19  C   UNL     1      22.106   7.749  50.098  0.00  0.00    +0.078 A 
ATOM     20 CL   UNL     1      21.281   6.769  51.249  0.00  0.00    -0.081 Cl
ATOM     21  C   UNL     1      23.462   7.517  49.849  0.00  0.00    +0.046 A 
ENDBRANCH  10  14
TORSDOF 1
ENDMDL
