MODEL 1
REMARK VINA RESULT:      -7.5      0.000      0.000
REMARK  Name = Molecule_03
REMARK  1 active torsions:
REMARK  status: ('A' for Active; 'I' for Inactive)
REMARK    1  A    between atoms: C_26  and  C_27
REMARK                            x       y       z     vdW  Elec       q    Type
REMARK                         _______ _______ _______ _____ _____    ______ ____
ROOT
ATOM      1  C   UNL     1      21.948   6.405  49.766  0.00  0.00    +0.024 C 
ATOM      2  C   UNL     1      21.817   7.741  50.306  0.00  0.00    +0.004 C 
ATOM      3  C   UNL     1      22.209   8.855  49.670  0.00  0.00    +0.026 C 
ATOM      4  C   UNL     1      22.539   8.938  48.265  0.00  0.00    +0.041 A 
ATOM      5  C   UNL     1      21.822   8.268  47.344  0.00  0.00    +0.037 A 
ATOM      6  C   UNL     1      21.796   6.909  47.289  0.00  0.00    +0.020 A 
ATOM      7  C   UNL     1      22.056   6.019  48.472  0.00  0.00    +0.041 C 
ATOM      8  N   UNL     1      22.666   4.762  48.194  0.00  0.00    -0.299 N 
ATOM      9  C   UNL     1      23.931   4.454  48.782  0.00  0.00    +0.128 A 
ATOM     10  N   UNL     1      24.079   3.274  49.410  0.00  0.00    -0.221 NA
ATOM     11  C   UNL     1      25.285   3.057  49.943  0.00  0.00    +0.225 A 
ATOM     12  N   UNL     1      26.341   3.882  49.931  0.00  0.00    -0.221 NA
ATOM     13  C   UNL     1      26.177   5.043  49.275  0.00  0.00    +0.124 A 
ATOM     14  C   UNL     1      24.970   5.368  48.689  0.00  0.00    +0.087 A 
ATOM     15  N   UNL     1      27.249   5.956  49.352  0.00  0.00    -0.329 N 
ATOM     16  C   UNL     1      27.516   6.687  48.096  0.00  0.00    +0.103 C 
ATOM     17  C   UNL     1      27.138   8.162  48.248  0.00  0.00    +0.019 C 
ATOM     18  C   UNL     1      27.473   8.969  46.993  0.00  0.00    +0.002 C 
ATOM     19  C   UNL     1      26.754  10.322  46.967  0.00  0.00    +0.008 C 
ATOM     20  C   UNL     1      25.443  10.321  46.163  0.00  0.00    +0.074 C 
ATOM     21  N   UNL     1      23.592   9.750  47.798  0.00  0.00    -0.343 N 
ATOM     22  C   UNL     1      24.366   9.401  46.661  0.00  0.00    +0.109 A 
ATOM     23  N   UNL     1      24.328   8.118  46.199  0.00  0.00    -0.223 NA
ATOM     24  C   UNL     1      23.597   7.959  45.057  0.00  0.00    +0.223 A 
ATOM     25  N   UNL     1      22.621   6.999  44.896  0.00  0.00    -0.239 NA
ATOM     26  C   UNL     1      21.947   6.446  45.985  0.00  0.00    +0.055 A 
ATOM     27  H   UNL     1      22.933   4.879  47.207  0.00  0.00    +0.154 HD
ATOM     28  H   UNL     1      26.923   6.635  50.037  0.00  0.00    +0.147 HD
ATOM     29  H   UNL     1      24.166  10.138  48.529  0.00  0.00    +0.167 HD
ENDROOT
BRANCH  26  30
ATOM     30  C   UNL     1      21.153   5.207  45.471  0.00  0.00    +0.043 C 
ATOM     31  C   UNL     1      19.741   5.038  46.072  0.00  0.00    +0.038 C 
ATOM     32  C   UNL     1      18.707   4.692  45.009  0.00  0.00    +0.160 C 
ATOM     33  O   UNL     1      19.087   3.558  44.229  0.00  0.00    -0.380 OA
ATOM     34  C   UNL     1      20.393   3.661  43.652  0.00  0.00    +0.160 C 
ATOM     35  C   UNL     1      21.144   4.953  43.953  0.00  0.00    +0.038 C 
ENDBRANCH  26  30
TORSDOF 1
ENDMDL
MODEL 2
REMARK VINA RESULT:      -7.5      1.164      1.274
REMARK  Name = Molecule_03
REMARK  1 active torsions:
REMARK  status: ('A' for Active; 'I' for Inactive)
REMARK    1  A    between atoms: C_26  and  C_27
REMARK                            x       y       z     vdW  Elec       q    Type
REMARK                         _______ _______ _______ _____ _____    ______ ____
ROOT
ATOM      1  C   UNL     1      22.851   6.459  50.261  0.00  0.00    +0.024 C 
ATOM      2  C   UNL     1      23.091   7.731  50.905  0.00  0.00    +0.004 C 
ATOM      3  C   UNL     1      23.706   8.771  50.321  0.00  0.00    +0.026 C 
ATOM      4  C   UNL     1      23.956   8.898  48.902  0.00  0.00    +0.041 A 
ATOM      5  C   UNL     1      23.038   8.508  47.999  0.00  0.00    +0.037 A 
ATOM      6  C   UNL     1      22.671   7.208  47.849  0.00  0.00    +0.020 A 
ATOM      7  C   UNL     1      22.777   6.177  48.937  0.00  0.00    +0.041 C 
ATOM      8  N   UNL     1      23.035   4.840  48.519  0.00  0.00    -0.299 N 
ATOM      9  C   UNL     1      24.219   4.182  48.974  0.00  0.00    +0.128 A 
ATOM     10  N   UNL     1      24.109   2.950  49.500  0.00  0.00    -0.221 NA
ATOM     11  C   UNL     1      25.255   2.399  49.913  0.00  0.00    +0.225 A 
ATOM     12  N   UNL     1      26.480   2.941  49.872  0.00  0.00    -0.221 NA
ATOM     13  C   UNL     1      26.567   4.162  49.318  0.00  0.00    +0.124 A 
ATOM     14  C   UNL     1      25.445   4.822  48.861  0.00  0.00    +0.087 A 
ATOM     15  N   UNL     1      27.836   4.776  49.370  0.00  0.00    -0.329 N 
ATOM     16  C   UNL     1      28.195   5.532  48.152  0.00  0.00    +0.103 C 
ATOM     17  C   UNL     1      28.207   7.035  48.442  0.00  0.00    +0.019 C 
ATOM     18  C   UNL     1      28.652   7.847  47.225  0.00  0.00    +0.002 C 
ATOM     19  C   UNL     1      28.291   9.331  47.357  0.00  0.00    +0.008 C 
ATOM     20  C   UNL     1      26.972   9.721  46.669  0.00  0.00    +0.074 C 
ATOM     21  N   UNL     1      25.146   9.469  48.409  0.00  0.00    -0.343 N 
ATOM     22  C   UNL     1      25.734   9.048  47.188  0.00  0.00    +0.109 A 
ATOM     23  N   UNL     1      25.349   7.860  46.639  0.00  0.00    -0.223 NA
ATOM     24  C   UNL     1      24.530   7.987  45.554  0.00  0.00    +0.223 A 
ATOM     25  N   UNL     1      23.338   7.312  45.407  0.00  0.00    -0.239 NA
ATOM     26  C   UNL     1      22.618   6.842  46.506  0.00  0.00    +0.055 A 
ATOM     27  H   UNL     1      23.260   4.978  47.524  0.00  0.00    +0.154 HD
ATOM     28  H   UNL     1      27.734   5.450  50.127  0.00  0.00    +0.147 HD
ATOM     29  H   UNL     1      25.844   9.638  49.114  0.00  0.00    +0.167 HD
ENDROOT
BRANCH  26  30
ATOM     30  C   UNL     1      21.510   5.884  45.973  0.00  0.00    +0.043 C 
ATOM     31  C   UNL     1      20.251   6.585  45.417  0.00  0.00    +0.038 C 
ATOM     32  C   UNL     1      19.794   5.973  44.099  0.00  0.00    +0.160 C 
ATOM     33  O   UNL     1      19.614   4.559  44.190  0.00  0.00    -0.380 OA
ATOM     34  C   UNL     1      20.752   3.861  44.706  0.00  0.00    +0.160 C 
ATOM     35  C   UNL     1      21.954   4.731  45.056  0.00  0.00    +0.038 C 
ENDBRANCH  26  30
TORSDOF 1
ENDMDL
MODEL 3
REMARK VINA RESULT:      -7.0      2.372      3.399
REMARK  Name = Molecule_03
REMARK  1 active torsions:
REMARK  status: ('A' for Active; 'I' for Inactive)
REMARK    1  A    between atoms: C_26  and  C_27
REMARK                            x       y       z     vdW  Elec       q    Type
REMARK                         _______ _______ _______ _____ _____    ______ ____
ROOT
ATOM      1  C   UNL     1      24.714   8.468  49.465  0.00  0.00    +0.024 C 
ATOM      2  C   UNL     1      25.385   9.651  49.957  0.00  0.00    +0.004 C 
ATOM      3  C   UNL     1      26.341  10.313  49.288  0.00  0.00    +0.026 C 
ATOM      4  C   UNL     1      26.643  10.141  47.884  0.00  0.00    +0.041 A 
ATOM      5  C   UNL     1      25.661   9.977  46.980  0.00  0.00    +0.037 A 
ATOM      6  C   UNL     1      24.854   8.883  46.971  0.00  0.00    +0.020 A 
ATOM      7  C   UNL     1      24.565   8.047  48.185  0.00  0.00    +0.041 C 
ATOM      8  N   UNL     1      24.334   6.660  47.958  0.00  0.00    -0.299 N 
ATOM      9  C   UNL     1      25.195   5.698  48.569  0.00  0.00    +0.128 A 
ATOM     10  N   UNL     1      24.641   4.671  49.238  0.00  0.00    -0.221 NA
ATOM     11  C   UNL     1      25.506   3.815  49.792  0.00  0.00    +0.225 A 
ATOM     12  N   UNL     1      26.845   3.879  49.763  0.00  0.00    -0.221 NA
ATOM     13  C   UNL     1      27.374   4.898  49.066  0.00  0.00    +0.124 A 
ATOM     14  C   UNL     1      26.570   5.840  48.457  0.00  0.00    +0.087 A 
ATOM     15  N   UNL     1      28.777   5.025  49.124  0.00  0.00    -0.329 N 
ATOM     16  C   UNL     1      29.403   5.425  47.846  0.00  0.00    +0.103 C 
ATOM     17  C   UNL     1      29.949   6.852  47.944  0.00  0.00    +0.019 C 
ATOM     18  C   UNL     1      30.675   7.274  46.666  0.00  0.00    +0.002 C 
ATOM     19  C   UNL     1      30.869   8.792  46.586  0.00  0.00    +0.008 C 
ATOM     20  C   UNL     1      29.789   9.521  45.768  0.00  0.00    +0.074 C 
ATOM     21  N   UNL     1      27.967  10.180  47.402  0.00  0.00    -0.343 N 
ATOM     22  C   UNL     1      28.384   9.409  46.286  0.00  0.00    +0.109 A 
ATOM     23  N   UNL     1      27.607   8.369  45.867  0.00  0.00    -0.223 NA
ATOM     24  C   UNL     1      26.906   8.623  44.723  0.00  0.00    +0.223 A 
ATOM     25  N   UNL     1      25.553   8.398  44.584  0.00  0.00    -0.239 NA
ATOM     26  C   UNL     1      24.696   8.373  45.685  0.00  0.00    +0.055 A 
ATOM     27  H   UNL     1      24.609   6.567  46.970  0.00  0.00    +0.154 HD
ATOM     28  H   UNL     1      28.911   5.792  49.781  0.00  0.00    +0.147 HD
ATOM     29  H   UNL     1      28.667  10.189  48.125  0.00  0.00    +0.167 HD
ENDROOT
BRANCH  26  30
ATOM     30  C   UNL     1      23.326   7.804  45.205  0.00  0.00    +0.043 C 
ATOM     31  C   UNL     1      22.087   8.601  45.666  0.00  0.00    +0.038 C 
ATOM     32  C   UNL     1      21.087   8.804  44.535  0.00  0.00    +0.160 C 
ATOM     33  O   UNL     1      20.720   7.575  43.906  0.00  0.00    -0.380 OA
ATOM     34  C   UNL     1      21.835   6.794  43.464  0.00  0.00    +0.160 C 
ATOM     35  C   UNL     1      23.208   7.401  43.724  0.00  0.00    +0.038 C 
ENDBRANCH  26  30
TORSDOF 1
ENDMDL
MODEL 4
REMARK VINA RESULT:      -7.0      1.794      2.205
REMARK  Name = Molecule_03
REMARK  1 active torsions:
REMARK  status: ('A' for Active; 'I' for Inactive)
REMARK    1  A    between atoms: C_26  and  C_27
REMARK                            x       y       z     vdW  Elec       q    Type
REMARK                         _______ _______ _______ _____ _____    ______ ____
ROOT
ATOM      1  C   UNL     1      20.485   8.477  49.595  0.00  0.00    +0.024 C 
ATOM      2  C   UNL     1      20.795   9.872  49.375  0.00  0.00    +0.004 C 
ATOM      3  C   UNL     1      21.602  10.324  48.404  0.00  0.00    +0.026 C 
ATOM      4  C   UNL     1      22.045   9.551  47.265  0.00  0.00    +0.041 A 
ATOM      5  C   UNL     1      21.210   8.706  46.633  0.00  0.00    +0.037 A 
ATOM      6  C   UNL     1      20.709   7.594  47.233  0.00  0.00    +0.020 A 
ATOM      7  C   UNL     1      20.547   7.445  48.719  0.00  0.00    +0.041 C 
ATOM      8  N   UNL     1      20.692   6.127  49.242  0.00  0.00    -0.299 N 
ATOM      9  C   UNL     1      21.718   5.864  50.200  0.00  0.00    +0.128 A 
ATOM     10  N   UNL     1      21.392   5.215  51.332  0.00  0.00    -0.221 NA
ATOM     11  C   UNL     1      22.399   5.011  52.186  0.00  0.00    +0.225 A 
ATOM     12  N   UNL     1      23.676   5.393  52.045  0.00  0.00    -0.221 NA
ATOM     13  C   UNL     1      23.983   6.016  50.895  0.00  0.00    +0.124 A 
ATOM     14  C   UNL     1      23.017   6.278  49.944  0.00  0.00    +0.087 A 
ATOM     15  N   UNL     1      25.300   6.510  50.790  0.00  0.00    -0.329 N 
ATOM     16  C   UNL     1      25.902   6.354  49.449  0.00  0.00    +0.103 C 
ATOM     17  C   UNL     1      26.060   7.719  48.775  0.00  0.00    +0.019 C 
ATOM     18  C   UNL     1      26.753   7.607  47.416  0.00  0.00    +0.002 C 
ATOM     19  C   UNL     1      26.563   8.867  46.565  0.00  0.00    +0.008 C 
ATOM     20  C   UNL     1      25.401   8.777  45.561  0.00  0.00    +0.074 C 
ATOM     21  N   UNL     1      23.350   9.678  46.747  0.00  0.00    -0.343 N 
ATOM     22  C   UNL     1      24.034   8.586  46.152  0.00  0.00    +0.109 A 
ATOM     23  N   UNL     1      23.579   7.318  46.369  0.00  0.00    -0.223 NA
ATOM     24  C   UNL     1      22.929   6.770  45.303  0.00  0.00    +0.223 A 
ATOM     25  N   UNL     1      21.691   6.167  45.383  0.00  0.00    -0.239 NA
ATOM     26  C   UNL     1      20.785   6.483  46.396  0.00  0.00    +0.055 A 
ATOM     27  H   UNL     1      21.058   5.622  48.423  0.00  0.00    +0.154 HD
ATOM     28  H   UNL     1      25.184   7.508  50.958  0.00  0.00    +0.147 HD
ATOM     29  H   UNL     1      23.967  10.231  47.319  0.00  0.00    +0.167 HD
ENDROOT
BRANCH  26  30
ATOM     30  C   UNL     1      19.645   5.420  46.360  0.00  0.00    +0.043 C 
ATOM     31  C   UNL     1      18.215   5.988  46.476  0.00  0.00    +0.038 C 
ATOM     32  C   UNL     1      17.265   5.352  45.470  0.00  0.00    +0.160 C 
ATOM     33  O   UNL     1      17.273   3.925  45.543  0.00  0.00    -0.380 OA
ATOM     34  C   UNL     1      18.579   3.346  45.445  0.00  0.00    +0.160 C 
ATOM     35  C   UNL     1      19.725   4.336  45.271  0.00  0.00    +0.038 C 
ENDBRANCH  26  30
TORSDOF 1
ENDMDL
MODEL 5
REMARK VINA RESULT:      -6.6      2.769      6.466
REMARK  Name = Molecule_03
REMARK  1 active torsions:
REMARK  status: ('A' for Active; 'I' for Inactive)
REMARK    1  A    between atoms: C_26  and  C_27
REMARK                            x       y       z     vdW  Elec       q    Type
REMARK                         _______ _______ _______ _____ _____    ______ ____
ROOT
ATOM      1  C   UNL     1      23.595   7.905  45.707  0.00  0.00    +0.024 C 
ATOM      2  C   UNL     1      23.726   9.342  45.806  0.00  0.00    +0.004 C 
ATOM      3  C   UNL     1      23.167  10.088  46.770  0.00  0.00    +0.026 C 
ATOM      4  C   UNL     1      22.610   9.573  48.001  0.00  0.00    +0.041 A 
ATOM      5  C   UNL     1      23.209   8.569  48.667  0.00  0.00    +0.037 A 
ATOM      6  C   UNL     1      23.313   7.315  48.153  0.00  0.00    +0.020 A 
ATOM      7  C   UNL     1      23.304   7.010  46.682  0.00  0.00    +0.041 C 
ATOM      8  N   UNL     1      22.739   5.759  46.299  0.00  0.00    -0.299 N 
ATOM      9  C   UNL     1      21.608   5.741  45.427  0.00  0.00    +0.128 A 
ATOM     10  N   UNL     1      21.638   4.938  44.349  0.00  0.00    -0.221 NA
ATOM     11  C   UNL     1      20.550   4.979  43.574  0.00  0.00    +0.225 A 
ATOM     12  N   UNL     1      19.457   5.734  43.745  0.00  0.00    -0.221 NA
ATOM     13  C   UNL     1      19.438   6.507  44.844  0.00  0.00    +0.124 A 
ATOM     14  C   UNL     1      20.511   6.542  45.711  0.00  0.00    +0.087 A 
ATOM     15  N   UNL     1      18.336   7.378  44.970  0.00  0.00    -0.329 N 
ATOM     16  C   UNL     1      17.824   7.514  46.350  0.00  0.00    +0.103 C 
ATOM     17  C   UNL     1      18.127   8.912  46.895  0.00  0.00    +0.019 C 
ATOM     18  C   UNL     1      17.542   9.117  48.293  0.00  0.00    +0.002 C 
ATOM     19  C   UNL     1      18.161  10.325  49.006  0.00  0.00    +0.008 C 
ATOM     20  C   UNL     1      19.322   9.971  49.950  0.00  0.00    +0.074 C 
ATOM     21  N   UNL     1      21.445  10.124  48.573  0.00  0.00    -0.343 N 
ATOM     22  C   UNL     1      20.521   9.335  49.308  0.00  0.00    +0.109 A 
ATOM     23  N   UNL     1      20.566   7.977  49.192  0.00  0.00    -0.223 NA
ATOM     24  C   UNL     1      21.111   7.343  50.271  0.00  0.00    +0.223 A 
ATOM     25  N   UNL     1      22.108   6.395  50.184  0.00  0.00    -0.239 NA
ATOM     26  C   UNL     1      22.983   6.346  49.097  0.00  0.00    +0.055 A 
ATOM     27  H   UNL     1      22.309   5.452  47.182  0.00  0.00    +0.154 HD
ATOM     28  H   UNL     1      18.725   8.280  44.700  0.00  0.00    +0.147 HD
ATOM     29  H   UNL     1      20.973  10.789  47.984  0.00  0.00    +0.167 HD
ENDROOT
BRANCH  26  30
ATOM     30  C   UNL     1      23.760   4.997  49.177  0.00  0.00    +0.043 C 
ATOM     31  C   UNL     1      25.294   5.117  49.046  0.00  0.00    +0.038 C 
ATOM     32  C   UNL     1      26.022   4.265  50.078  0.00  0.00    +0.160 C 
ATOM     33  O   UNL     1      25.595   2.902  50.056  0.00  0.00    -0.380 OA
ATOM     34  C   UNL     1      24.178   2.736  50.169  0.00  0.00    +0.160 C 
ATOM     35  C   UNL     1      23.373   4.023  50.303  0.00  0.00    +0.038 C 
ENDBRANCH  26  30
TORSDOF 1
ENDMDL
MODEL 6
REMARK VINA RESULT:      -6.3      3.076      6.719
REMARK  Name = Molecule_03
REMARK  1 active torsions:
REMARK  status: ('A' for Active; 'I' for Inactive)
REMARK    1  A    between atoms: C_26  and  C_27
REMARK                            x       y       z     vdW  Elec       q    Type
REMARK                         _______ _______ _______ _____ _____    ______ ____
ROOT
ATOM      1  C   UNL     1      22.880   7.333  45.191  0.00  0.00    +0.024 C 
ATOM      2  C   UNL     1      22.913   8.764  44.984  0.00  0.00    +0.004 C 
ATOM      3  C   UNL     1      22.264   9.654  45.749  0.00  0.00    +0.026 C 
ATOM      4  C   UNL     1      21.685   9.372  47.043  0.00  0.00    +0.041 A 
ATOM      5  C   UNL     1      22.317   8.578  47.927  0.00  0.00    +0.037 A 
ATOM      6  C   UNL     1      22.525   7.254  47.697  0.00  0.00    +0.020 A 
ATOM      7  C   UNL     1      22.603   6.645  46.326  0.00  0.00    +0.041 C 
ATOM      8  N   UNL     1      22.137   5.304  46.201  0.00  0.00    -0.299 N 
ATOM      9  C   UNL     1      21.050   5.021  45.319  0.00  0.00    +0.128 A 
ATOM     10  N   UNL     1      21.181   4.012  44.439  0.00  0.00    -0.221 NA
ATOM     11  C   UNL     1      20.130   3.809  43.639  0.00  0.00    +0.225 A 
ATOM     12  N   UNL     1      18.983   4.502  43.612  0.00  0.00    -0.221 NA
ATOM     13  C   UNL     1      18.865   5.487  44.518  0.00  0.00    +0.124 A 
ATOM     14  C   UNL     1      19.893   5.782  45.391  0.00  0.00    +0.087 A 
ATOM     15  N   UNL     1      17.705   6.283  44.420  0.00  0.00    -0.329 N 
ATOM     16  C   UNL     1      17.123   6.669  45.723  0.00  0.00    +0.103 C 
ATOM     17  C   UNL     1      17.309   8.169  45.966  0.00  0.00    +0.019 C 
ATOM     18  C   UNL     1      16.650   8.623  47.269  0.00  0.00    +0.002 C 
ATOM     19  C   UNL     1      17.156   9.995  47.725  0.00  0.00    +0.008 C 
ATOM     20  C   UNL     1      18.293   9.933  48.759  0.00  0.00    +0.074 C 
ATOM     21  N   UNL     1      20.463   9.945  47.448  0.00  0.00    -0.343 N 
ATOM     22  C   UNL     1      19.559   9.265  48.305  0.00  0.00    +0.109 A 
ATOM     23  N   UNL     1      19.696   7.920  48.484  0.00  0.00    -0.223 NA
ATOM     24  C   UNL     1      20.231   7.570  49.690  0.00  0.00    +0.223 A 
ATOM     25  N   UNL     1      21.289   6.699  49.838  0.00  0.00    -0.239 NA
ATOM     26  C   UNL     1      22.214   6.485  48.816  0.00  0.00    +0.055 A 
ATOM     27  H   UNL     1      21.687   5.160  47.116  0.00  0.00    +0.154 HD
ATOM     28  H   UNL     1      18.046   7.133  43.976  0.00  0.00    +0.147 HD
ATOM     29  H   UNL     1      19.976  10.436  46.716  0.00  0.00    +0.167 HD
ENDROOT
BRANCH  26  30
ATOM     30  C   UNL     1      23.072   5.244  49.206  0.00  0.00    +0.043 C 
ATOM     31  C   UNL     1      24.577   5.359  48.881  0.00  0.00    +0.038 C 
ATOM     32  C   UNL     1      25.448   4.876  50.033  0.00  0.00    +0.160 C 
ATOM     33  O   UNL     1      25.101   3.559  50.462  0.00  0.00    -0.380 OA
ATOM     34  C   UNL     1      23.713   3.396  50.771  0.00  0.00    +0.160 C 
ATOM     35  C   UNL     1      22.851   4.643  50.605  0.00  0.00    +0.038 C 
ENDBRANCH  26  30
TORSDOF 1
ENDMDL
MODEL 7
REMARK VINA RESULT:      -6.3      2.507      5.512
REMARK  Name = Molecule_03
REMARK  1 active torsions:
REMARK  status: ('A' for Active; 'I' for Inactive)
REMARK    1  A    between atoms: C_26  and  C_27
REMARK                            x       y       z     vdW  Elec       q    Type
REMARK                         _______ _______ _______ _____ _____    ______ ____
ROOT
ATOM      1  C   UNL     1      21.838   6.677  44.835  0.00  0.00    +0.024 C 
ATOM      2  C   UNL     1      21.973   5.255  44.613  0.00  0.00    +0.004 C 
ATOM      3  C   UNL     1      22.172   4.353  45.585  0.00  0.00    +0.026 C 
ATOM      4  C   UNL     1      21.992   4.601  46.999  0.00  0.00    +0.041 A 
ATOM      5  C   UNL     1      20.964   5.346  47.445  0.00  0.00    +0.037 A 
ATOM      6  C   UNL     1      20.851   6.672  47.167  0.00  0.00    +0.020 A 
ATOM      7  C   UNL     1      21.464   7.329  45.963  0.00  0.00    +0.041 C 
ATOM      8  N   UNL     1      21.873   8.685  46.122  0.00  0.00    -0.299 N 
ATOM      9  C   UNL     1      23.246   9.028  45.930  0.00  0.00    +0.128 A 
ATOM     10  N   UNL     1      23.545  10.065  45.128  0.00  0.00    -0.221 NA
ATOM     11  C   UNL     1      24.849  10.323  44.988  0.00  0.00    +0.225 A 
ATOM     12  N   UNL     1      25.874   9.660  45.541  0.00  0.00    -0.221 NA
ATOM     13  C   UNL     1      25.549   8.646  46.360  0.00  0.00    +0.124 A 
ATOM     14  C   UNL     1      24.232   8.293  46.573  0.00  0.00    +0.087 A 
ATOM     15  N   UNL     1      26.626   7.883  46.858  0.00  0.00    -0.329 N 
ATOM     16  C   UNL     1      26.471   7.464  48.267  0.00  0.00    +0.103 C 
ATOM     17  C   UNL     1      26.247   5.952  48.350  0.00  0.00    +0.019 C 
ATOM     18  C   UNL     1      26.161   5.467  49.798  0.00  0.00    +0.002 C 
ATOM     19  C   UNL     1      25.548   4.066  49.903  0.00  0.00    +0.008 C 
ATOM     20  C   UNL     1      24.039   4.061  50.204  0.00  0.00    +0.074 C 
ATOM     21  N   UNL     1      22.855   4.044  47.964  0.00  0.00    -0.343 N 
ATOM     22  C   UNL     1      23.161   4.714  49.177  0.00  0.00    +0.109 A 
ATOM     23  N   UNL     1      22.897   6.048  49.285  0.00  0.00    -0.223 NA
ATOM     24  C   UNL     1      21.805   6.340  50.050  0.00  0.00    +0.223 A 
ATOM     25  N   UNL     1      20.787   7.178  49.649  0.00  0.00    -0.239 NA
ATOM     26  C   UNL     1      20.511   7.407  48.300  0.00  0.00    +0.055 A 
ATOM     27  H   UNL     1      21.782   8.806  47.140  0.00  0.00    +0.154 HD
ATOM     28  H   UNL     1      26.596   7.042  46.285  0.00  0.00    +0.147 HD
ATOM     29  H   UNL     1      23.667   3.593  47.578  0.00  0.00    +0.167 HD
ENDROOT
BRANCH  26  30
ATOM     30  C   UNL     1      19.525   8.611  48.216  0.00  0.00    +0.043 C 
ATOM     31  C   UNL     1      18.474   8.520  47.089  0.00  0.00    +0.038 C 
ATOM     32  C   UNL     1      17.083   8.906  47.574  0.00  0.00    +0.160 C 
ATOM     33  O   UNL     1      17.065  10.186  48.210  0.00  0.00    -0.380 OA
ATOM     34  C   UNL     1      18.027  10.325  49.261  0.00  0.00    +0.160 C 
ATOM     35  C   UNL     1      18.889   9.097  49.530  0.00  0.00    +0.038 C 
ENDBRANCH  26  30
TORSDOF 1
ENDMDL
MODEL 8
REMARK VINA RESULT:      -6.1      2.713      6.418
REMARK  Name = Molecule_03
REMARK  1 active torsions:
REMARK  status: ('A' for Active; 'I' for Inactive)
REMARK    1  A    between atoms: C_26  and  C_27
REMARK                            x       y       z     vdW  Elec       q    Type
REMARK                         _______ _______ _______ _____ _____    ______ ____
ROOT
ATOM      1  C   UNL     1      22.423   9.180  47.581  0.00  0.00    +0.024 C 
ATOM      2  C   UNL     1      21.951   9.179  48.947  0.00  0.00    +0.004 C 
ATOM      3  C   UNL     1      22.490   8.448  49.934  0.00  0.00    +0.026 C 
ATOM      4  C   UNL     1      23.777   7.791  49.873  0.00  0.00    +0.041 A 
ATOM      5  C   UNL     1      24.832   8.387  49.289  0.00  0.00    +0.037 A 
ATOM      6  C   UNL     1      24.872   8.655  47.956  0.00  0.00    +0.020 A 
ATOM      7  C   UNL     1      23.649   8.849  47.106  0.00  0.00    +0.041 C 
ATOM      8  N   UNL     1      23.753   8.439  45.745  0.00  0.00    -0.299 N 
ATOM      9  C   UNL     1      22.876   7.427  45.250  0.00  0.00    +0.128 A 
ATOM     10  N   UNL     1      22.213   7.653  44.102  0.00  0.00    -0.221 NA
ATOM     11  C   UNL     1      21.404   6.666  43.704  0.00  0.00    +0.225 A 
ATOM     12  N   UNL     1      21.174   5.501  44.325  0.00  0.00    -0.221 NA
ATOM     13  C   UNL     1      21.868   5.287  45.456  0.00  0.00    +0.124 A 
ATOM     14  C   UNL     1      22.730   6.241  45.957  0.00  0.00    +0.087 A 
ATOM     15  N   UNL     1      21.549   4.110  46.164  0.00  0.00    -0.329 N 
ATOM     16  C   UNL     1      22.717   3.426  46.760  0.00  0.00    +0.103 C 
ATOM     17  C   UNL     1      22.680   3.544  48.286  0.00  0.00    +0.019 C 
ATOM     18  C   UNL     1      23.831   2.781  48.944  0.00  0.00    +0.002 C 
ATOM     19  C   UNL     1      24.048   3.207  50.400  0.00  0.00    +0.008 C 
ATOM     20  C   UNL     1      25.143   4.271  50.586  0.00  0.00    +0.074 C 
ATOM     21  N   UNL     1      23.989   6.524  50.454  0.00  0.00    -0.343 N 
ATOM     22  C   UNL     1      24.903   5.588  49.905  0.00  0.00    +0.109 A 
ATOM     23  N   UNL     1      25.343   5.758  48.625  0.00  0.00    -0.223 NA
ATOM     24  C   UNL     1      26.624   6.220  48.532  0.00  0.00    +0.223 A 
ATOM     25  N   UNL     1      27.000   7.294  47.755  0.00  0.00    -0.239 NA
ATOM     26  C   UNL     1      26.095   8.295  47.397  0.00  0.00    +0.055 A 
ATOM     27  H   UNL     1      24.649   7.932  45.754  0.00  0.00    +0.154 HD
ATOM     28  H   UNL     1      20.973   4.452  46.931  0.00  0.00    +0.147 HD
ATOM     29  H   UNL     1      23.149   6.074  50.775  0.00  0.00    +0.167 HD
ENDROOT
BRANCH  26  30
ATOM     30  C   UNL     1      26.766   9.166  46.292  0.00  0.00    +0.043 C 
ATOM     31  C   UNL     1      27.886  10.105  46.788  0.00  0.00    +0.038 C 
ATOM     32  C   UNL     1      29.105  10.070  45.876  0.00  0.00    +0.160 C 
ATOM     33  O   UNL     1      28.770  10.325  44.511  0.00  0.00    -0.380 OA
ATOM     34  C   UNL     1      27.730   9.483  44.002  0.00  0.00    +0.160 C 
ATOM     35  C   UNL     1      27.171   8.461  44.985  0.00  0.00    +0.038 C 
ENDBRANCH  26  30
TORSDOF 1
ENDMDL
MODEL 9
REMARK VINA RESULT:      -5.6      2.496      6.022
REMARK  Name = Molecule_03
REMARK  1 active torsions:
REMARK  status: ('A' for Active; 'I' for Inactive)
REMARK    1  A    between atoms: C_26  and  C_27
REMARK                            x       y       z     vdW  Elec       q    Type
REMARK                         _______ _______ _______ _____ _____    ______ ____
ROOT
ATOM      1  C   UNL     1      22.519   9.188  48.944  0.00  0.00    +0.024 C 
ATOM      2  C   UNL     1      21.110   9.493  49.052  0.00  0.00    +0.004 C 
ATOM      3  C   UNL     1      20.132   8.752  48.511  0.00  0.00    +0.026 C 
ATOM      4  C   UNL     1      20.292   7.407  48.003  0.00  0.00    +0.041 A 
ATOM      5  C   UNL     1      21.068   6.513  48.643  0.00  0.00    +0.037 A 
ATOM      6  C   UNL     1      22.415   6.665  48.753  0.00  0.00    +0.020 A 
ATOM      7  C   UNL     1      23.114   7.994  48.701  0.00  0.00    +0.041 C 
ATOM      8  N   UNL     1      24.426   7.998  48.147  0.00  0.00    -0.299 N 
ATOM      9  C   UNL     1      24.694   8.789  46.989  0.00  0.00    +0.128 A 
ATOM     10  N   UNL     1      25.762   9.605  46.999  0.00  0.00    -0.221 NA
ATOM     11  C   UNL     1      25.946  10.322  45.886  0.00  0.00    +0.225 A 
ATOM     12  N   UNL     1      25.183  10.325  44.784  0.00  0.00    -0.221 NA
ATOM     13  C   UNL     1      24.137   9.482  44.788  0.00  0.00    +0.124 A 
ATOM     14  C   UNL     1      23.855   8.697  45.887  0.00  0.00    +0.087 A 
ATOM     15  N   UNL     1      23.274   9.561  43.675  0.00  0.00    -0.329 N 
ATOM     16  C   UNL     1      22.768   8.253  43.205  0.00  0.00    +0.103 C 
ATOM     17  C   UNL     1      21.271   8.126  43.500  0.00  0.00    +0.019 C 
ATOM     18  C   UNL     1      20.693   6.818  42.957  0.00  0.00    +0.002 C 
ATOM     19  C   UNL     1      19.330   6.488  43.576  0.00  0.00    +0.008 C 
ATOM     20  C   UNL     1      19.401   5.525  44.774  0.00  0.00    +0.074 C 
ATOM     21  N   UNL     1      19.615   6.967  46.848  0.00  0.00    -0.343 N 
ATOM     22  C   UNL     1      20.178   6.011  45.963  0.00  0.00    +0.109 A 
ATOM     23  N   UNL     1      21.516   5.750  46.029  0.00  0.00    -0.223 NA
ATOM     24  C   UNL     1      21.823   4.559  46.621  0.00  0.00    +0.223 A 
ATOM     25  N   UNL     1      22.750   4.418  47.631  0.00  0.00    -0.239 NA
ATOM     26  C   UNL     1      23.089   5.480  48.471  0.00  0.00    +0.055 A 
ATOM     27  H   UNL     1      24.482   7.049  47.751  0.00  0.00    +0.154 HD
ATOM     28  H   UNL     1      22.478  10.082  44.037  0.00  0.00    +0.147 HD
ATOM     29  H   UNL     1      19.142   7.699  46.345  0.00  0.00    +0.167 HD
ENDROOT
BRANCH  26  30
ATOM     30  C   UNL     1      24.357   5.061  49.275  0.00  0.00    +0.043 C 
ATOM     31  C   UNL     1      24.260   3.692  49.984  0.00  0.00    +0.038 C 
ATOM     32  C   UNL     1      25.522   2.862  49.794  0.00  0.00    +0.160 C 
ATOM     33  O   UNL     1      26.702   3.571  50.175  0.00  0.00    -0.380 OA
ATOM     34  C   UNL     1      26.837   4.851  49.549  0.00  0.00    +0.160 C 
ATOM     35  C   UNL     1      25.721   5.233  48.584  0.00  0.00    +0.038 C 
ENDBRANCH  26  30
TORSDOF 1
ENDMDL
MODEL 10
REMARK VINA RESULT:      -5.6      2.847      5.478
REMARK  Name = Molecule_03
REMARK  1 active torsions:
REMARK  status: ('A' for Active; 'I' for Inactive)
REMARK    1  A    between atoms: C_26  and  C_27
REMARK                            x       y       z     vdW  Elec       q    Type
REMARK                         _______ _______ _______ _____ _____    ______ ____
ROOT
ATOM      1  C   UNL     1      21.456   6.120  45.100  0.00  0.00    +0.024 C 
ATOM      2  C   UNL     1      22.000   4.865  45.568  0.00  0.00    +0.004 C 
ATOM      3  C   UNL     1      22.355   4.620  46.839  0.00  0.00    +0.026 C 
ATOM      4  C   UNL     1      21.987   5.435  47.975  0.00  0.00    +0.041 A 
ATOM      5  C   UNL     1      20.758   5.973  48.074  0.00  0.00    +0.037 A 
ATOM      6  C   UNL     1      20.307   6.921  47.210  0.00  0.00    +0.020 A 
ATOM      7  C   UNL     1      20.818   7.085  45.807  0.00  0.00    +0.041 C 
ATOM      8  N   UNL     1      20.819   8.411  45.285  0.00  0.00    -0.299 N 
ATOM      9  C   UNL     1      22.054   9.002  44.879  0.00  0.00    +0.128 A 
ATOM     10  N   UNL     1      22.124   9.581  43.668  0.00  0.00    -0.221 NA
ATOM     11  C   UNL     1      23.312  10.105  43.351  0.00  0.00    +0.225 A 
ATOM     12  N   UNL     1      24.427  10.102  44.094  0.00  0.00    -0.221 NA
ATOM     13  C   UNL     1      24.325   9.542  45.311  0.00  0.00    +0.124 A 
ATOM     14  C   UNL     1      23.144   8.969  45.737  0.00  0.00    +0.087 A 
ATOM     15  N   UNL     1      25.522   9.443  46.050  0.00  0.00    -0.329 N 
ATOM     16  C   UNL     1      25.365   9.705  47.497  0.00  0.00    +0.103 C 
ATOM     17  C   UNL     1      25.563   8.414  48.295  0.00  0.00    +0.019 C 
ATOM     18  C   UNL     1      25.487   8.658  49.803  0.00  0.00    +0.002 C 
ATOM     19  C   UNL     1      25.279   7.359  50.589  0.00  0.00    +0.008 C 
ATOM     20  C   UNL     1      23.811   7.064  50.939  0.00  0.00    +0.074 C 
ATOM     21  N   UNL     1      22.882   5.666  49.040  0.00  0.00    -0.343 N 
ATOM     22  C   UNL     1      22.881   6.880  49.775  0.00  0.00    +0.109 A 
ATOM     23  N   UNL     1      22.249   7.972  49.256  0.00  0.00    -0.223 NA
ATOM     24  C   UNL     1      21.055   8.260  49.852  0.00  0.00    +0.223 A 
ATOM     25  N   UNL     1      19.884   8.483  49.160  0.00  0.00    -0.239 NA
ATOM     26  C   UNL     1      19.677   7.967  47.880  0.00  0.00    +0.055 A 
ATOM     27  H   UNL     1      20.608   8.962  46.129  0.00  0.00    +0.154 HD
ATOM     28  H   UNL     1      25.778   8.464  45.944  0.00  0.00    +0.147 HD
ATOM     29  H   UNL     1      23.819   5.341  48.868  0.00  0.00    +0.167 HD
ENDROOT
BRANCH  26  30
ATOM     30  C   UNL     1      18.407   8.654  47.292  0.00  0.00    +0.043 C 
ATOM     31  C   UNL     1      17.384   7.696  46.646  0.00  0.00    +0.038 C 
ATOM     32  C   UNL     1      15.955   8.023  47.059  0.00  0.00    +0.160 C 
ATOM     33  O   UNL     1      15.621   9.392  46.821  0.00  0.00    -0.380 OA
ATOM     34  C   UNL     1      16.543  10.323  47.396  0.00  0.00    +0.160 C 
ATOM     35  C   UNL     1      17.706   9.708  48.166  0.00  0.00    +0.038 C 
ENDBRANCH  26  30
TORSDOF 1
ENDMDL
MODEL 11
REMARK VINA RESULT:      -5.4      2.528      5.142
REMARK  Name = Molecule_03
REMARK  1 active torsions:
REMARK  status: ('A' for Active; 'I' for Inactive)
REMARK    1  A    between atoms: C_26  and  C_27
REMARK                            x       y       z     vdW  Elec       q    Type
REMARK                         _______ _______ _______ _____ _____    ______ ____
ROOT
ATOM      1  C   UNL     1      21.597   4.998  46.366  0.00  0.00    +0.024 C 
ATOM      2  C   UNL     1      22.367   3.965  47.023  0.00  0.00    +0.004 C 
ATOM      3  C   UNL     1      23.202   4.181  48.051  0.00  0.00    +0.026 C 
ATOM      4  C   UNL     1      23.245   5.388  48.846  0.00  0.00    +0.041 A 
ATOM      5  C   UNL     1      22.115   6.027  49.199  0.00  0.00    +0.037 A 
ATOM      6  C   UNL     1      21.299   6.620  48.288  0.00  0.00    +0.020 A 
ATOM      7  C   UNL     1      21.215   6.207  46.846  0.00  0.00    +0.041 C 
ATOM      8  N   UNL     1      20.920   7.239  45.908  0.00  0.00    -0.299 N 
ATOM      9  C   UNL     1      21.857   7.529  44.871  0.00  0.00    +0.128 A 
ATOM     10  N   UNL     1      21.412   7.608  43.604  0.00  0.00    -0.221 NA
ATOM     11  C   UNL     1      22.345   7.874  42.685  0.00  0.00    +0.225 A 
ATOM     12  N   UNL     1      23.658   8.052  42.885  0.00  0.00    -0.221 NA
ATOM     13  C   UNL     1      24.074   7.995  44.162  0.00  0.00    +0.124 A 
ATOM     14  C   UNL     1      23.194   7.725  45.189  0.00  0.00    +0.087 A 
ATOM     15  N   UNL     1      25.468   8.077  44.363  0.00  0.00    -0.329 N 
ATOM     16  C   UNL     1      25.864   8.870  45.546  0.00  0.00    +0.103 C 
ATOM     17  C   UNL     1      26.446   7.956  46.628  0.00  0.00    +0.019 C 
ATOM     18  C   UNL     1      26.941   8.749  47.838  0.00  0.00    +0.002 C 
ATOM     19  C   UNL     1      27.147   7.858  49.068  0.00  0.00    +0.008 C 
ATOM     20  C   UNL     1      25.953   7.840  50.037  0.00  0.00    +0.074 C 
ATOM     21  N   UNL     1      24.463   5.921  49.315  0.00  0.00    -0.343 N 
ATOM     22  C   UNL     1      24.661   7.316  49.481  0.00  0.00    +0.109 A 
ATOM     23  N   UNL     1      23.801   8.187  48.876  0.00  0.00    -0.223 NA
ATOM     24  C   UNL     1      22.914   8.776  49.729  0.00  0.00    +0.223 A 
ATOM     25  N   UNL     1      21.554   8.825  49.510  0.00  0.00    -0.239 NA
ATOM     26  C   UNL     1      20.905   7.890  48.703  0.00  0.00    +0.055 A 
ATOM     27  H   UNL     1      21.013   8.079  46.496  0.00  0.00    +0.154 HD
ATOM     28  H   UNL     1      25.731   7.110  44.542  0.00  0.00    +0.147 HD
ATOM     29  H   UNL     1      25.281   5.477  48.932  0.00  0.00    +0.167 HD
ENDROOT
BRANCH  26  30
ATOM     30  C   UNL     1      19.461   8.415  48.437  0.00  0.00    +0.043 C 
ATOM     31  C   UNL     1      18.746   9.017  49.666  0.00  0.00    +0.038 C 
ATOM     32  C   UNL     1      18.039  10.323  49.330  0.00  0.00    +0.160 C 
ATOM     33  O   UNL     1      17.154  10.191  48.217  0.00  0.00    -0.380 OA
ATOM     34  C   UNL     1      17.767   9.632  47.051  0.00  0.00    +0.160 C 
ATOM     35  C   UNL     1      19.245   9.286  47.187  0.00  0.00    +0.038 C 
ENDBRANCH  26  30
TORSDOF 1
ENDMDL
MODEL 12
REMARK VINA RESULT:      -5.3      3.234      6.291
REMARK  Name = Molecule_03
REMARK  1 active torsions:
REMARK  status: ('A' for Active; 'I' for Inactive)
REMARK    1  A    between atoms: C_26  and  C_27
REMARK                            x       y       z     vdW  Elec       q    Type
REMARK                         _______ _______ _______ _____ _____    ______ ____
ROOT
ATOM      1  C   UNL     1      22.082   4.919  46.576  0.00  0.00    +0.024 C 
ATOM      2  C   UNL     1      21.051   4.232  45.829  0.00  0.00    +0.004 C 
ATOM      3  C   UNL     1      20.210   4.831  44.973  0.00  0.00    +0.026 C 
ATOM      4  C   UNL     1      20.377   6.165  44.441  0.00  0.00    +0.041 A 
ATOM      5  C   UNL     1      21.591   6.622  44.084  0.00  0.00    +0.037 A 
ATOM      6  C   UNL     1      22.588   6.824  44.987  0.00  0.00    +0.020 A 
ATOM      7  C   UNL     1      22.687   6.099  46.299  0.00  0.00    +0.041 C 
ATOM      8  N   UNL     1      23.278   6.820  47.377  0.00  0.00    -0.299 N 
ATOM      9  C   UNL     1      22.512   7.063  48.558  0.00  0.00    +0.128 A 
ATOM     10  N   UNL     1      23.059   6.773  49.751  0.00  0.00    -0.221 NA
ATOM     11  C   UNL     1      22.283   7.016  50.812  0.00  0.00    +0.225 A 
ATOM     12  N   UNL     1      21.033   7.497  50.812  0.00  0.00    -0.221 NA
ATOM     13  C   UNL     1      20.518   7.805  49.610  0.00  0.00    +0.124 A 
ATOM     14  C   UNL     1      21.233   7.591  48.449  0.00  0.00    +0.087 A 
ATOM     15  N   UNL     1      19.167   8.211  49.600  0.00  0.00    -0.329 N 
ATOM     16  C   UNL     1      18.869   9.305  48.652  0.00  0.00    +0.103 C 
ATOM     17  C   UNL     1      18.015   8.786  47.492  0.00  0.00    +0.019 C 
ATOM     18  C   UNL     1      17.619   9.907  46.530  0.00  0.00    +0.002 C 
ATOM     19  C   UNL     1      17.125   9.365  45.184  0.00  0.00    +0.008 C 
ATOM     20  C   UNL     1      18.206   9.316  44.091  0.00  0.00    +0.074 C 
ATOM     21  N   UNL     1      19.278   7.024  44.237  0.00  0.00    -0.343 N 
ATOM     22  C   UNL     1      19.387   8.432  44.373  0.00  0.00    +0.109 A 
ATOM     23  N   UNL     1      20.463   8.956  45.026  0.00  0.00    -0.223 NA
ATOM     24  C   UNL     1      21.392   9.524  44.203  0.00  0.00    +0.223 A 
ATOM     25  N   UNL     1      22.741   9.246  44.259  0.00  0.00    -0.239 NA
ATOM     26  C   UNL     1      23.224   8.046  44.783  0.00  0.00    +0.055 A 
ATOM     27  H   UNL     1      23.330   7.769  46.981  0.00  0.00    +0.154 HD
ATOM     28  H   UNL     1      18.680   7.380  49.269  0.00  0.00    +0.147 HD
ATOM     29  H   UNL     1      18.413   6.683  44.623  0.00  0.00    +0.167 HD
ENDROOT
BRANCH  26  30
ATOM     30  C   UNL     1      24.764   8.195  44.968  0.00  0.00    +0.043 C 
ATOM     31  C   UNL     1      25.584   8.201  43.660  0.00  0.00    +0.038 C 
ATOM     32  C   UNL     1      26.644   9.295  43.656  0.00  0.00    +0.160 C 
ATOM     33  O   UNL     1      27.488   9.237  44.807  0.00  0.00    -0.380 OA
ATOM     34  C   UNL     1      26.776   9.224  46.049  0.00  0.00    +0.160 C 
ATOM     35  C   UNL     1      25.257   9.285  45.937  0.00  0.00    +0.038 C 
ENDBRANCH  26  30
TORSDOF 1
ENDMDL
MODEL 13
REMARK VINA RESULT:      -5.1      3.061      6.178
REMARK  Name = Molecule_03
REMARK  1 active torsions:
REMARK  status: ('A' for Active; 'I' for Inactive)
REMARK    1  A    between atoms: C_26  and  C_27
REMARK                            x       y       z     vdW  Elec       q    Type
REMARK                         _______ _______ _______ _____ _____    ______ ____
ROOT
ATOM      1  C   UNL     1      22.482   4.899  46.506  0.00  0.00    +0.024 C 
ATOM      2  C   UNL     1      21.672   4.613  45.342  0.00  0.00    +0.004 C 
ATOM      3  C   UNL     1      21.140   5.549  44.542  0.00  0.00    +0.026 C 
ATOM      4  C   UNL     1      21.519   6.944  44.529  0.00  0.00    +0.041 A 
ATOM      5  C   UNL     1      22.806   7.314  44.658  0.00  0.00    +0.037 A 
ATOM      6  C   UNL     1      23.514   7.100  45.799  0.00  0.00    +0.020 A 
ATOM      7  C   UNL     1      23.200   6.013  46.787  0.00  0.00    +0.041 C 
ATOM      8  N   UNL     1      23.497   6.294  48.152  0.00  0.00    -0.299 N 
ATOM      9  C   UNL     1      22.440   6.279  49.114  0.00  0.00    +0.128 A 
ATOM     10  N   UNL     1      22.611   5.576  50.248  0.00  0.00    -0.221 NA
ATOM     11  C   UNL     1      21.580   5.599  51.097  0.00  0.00    +0.225 A 
ATOM     12  N   UNL     1      20.406   6.226  50.936  0.00  0.00    -0.221 NA
ATOM     13  C   UNL     1      20.270   6.944  49.808  0.00  0.00    +0.124 A 
ATOM     14  C   UNL     1      21.274   6.986  48.862  0.00  0.00    +0.087 A 
ATOM     15  N   UNL     1      19.000   7.516  49.588  0.00  0.00    -0.329 N 
ATOM     16  C   UNL     1      19.039   8.873  49.001  0.00  0.00    +0.103 C 
ATOM     17  C   UNL     1      18.525   8.843  47.560  0.00  0.00    +0.019 C 
ATOM     18  C   UNL     1      18.476  10.242  46.944  0.00  0.00    +0.002 C 
ATOM     19  C   UNL     1      18.357  10.197  45.416  0.00  0.00    +0.008 C 
ATOM     20  C   UNL     1      19.700  10.325  44.678  0.00  0.00    +0.074 C 
ATOM     21  N   UNL     1      20.568   7.968  44.342  0.00  0.00    -0.343 N 
ATOM     22  C   UNL     1      20.705   9.243  44.948  0.00  0.00    +0.109 A 
ATOM     23  N   UNL     1      21.577   9.397  45.986  0.00  0.00    -0.223 NA
ATOM     24  C   UNL     1      22.730  10.049  45.653  0.00  0.00    +0.223 A 
ATOM     25  N   UNL     1      23.991   9.584  45.956  0.00  0.00    -0.239 NA
ATOM     26  C   UNL     1      24.243   8.228  46.168  0.00  0.00    +0.055 A 
ATOM     27  H   UNL     1      23.708   7.301  48.111  0.00  0.00    +0.154 HD
ATOM     28  H   UNL     1      18.586   6.897  48.895  0.00  0.00    +0.147 HD
ATOM     29  H   UNL     1      19.613   7.650  44.365  0.00  0.00    +0.167 HD
ENDROOT
BRANCH  26  30
ATOM     30  C   UNL     1      25.674   8.101  46.776  0.00  0.00    +0.043 C 
ATOM     31  C   UNL     1      26.824   8.523  45.836  0.00  0.00    +0.038 C 
ATOM     32  C   UNL     1      27.853   9.390  46.548  0.00  0.00    +0.160 C 
ATOM     33  O   UNL     1      28.345   8.779  47.743  0.00  0.00    -0.380 OA
ATOM     34  C   UNL     1      27.317   8.364  48.648  0.00  0.00    +0.160 C 
ATOM     35  C   UNL     1      25.889   8.650  48.197  0.00  0.00    +0.038 C 
ENDBRANCH  26  30
TORSDOF 1
ENDMDL
MODEL 14
REMARK VINA RESULT:      -5.0      3.653      7.183
REMARK  Name = Molecule_03
REMARK  1 active torsions:
REMARK  status: ('A' for Active; 'I' for Inactive)
REMARK    1  A    between atoms: C_26  and  C_27
REMARK                            x       y       z     vdW  Elec       q    Type
REMARK                         _______ _______ _______ _____ _____    ______ ____
ROOT
ATOM      1  C   UNL     1      21.831   7.624  44.847  0.00  0.00    +0.024 C 
ATOM      2  C   UNL     1      21.457   8.799  44.091  0.00  0.00    +0.004 C 
ATOM      3  C   UNL     1      20.618   9.748  44.533  0.00  0.00    +0.026 C 
ATOM      4  C   UNL     1      20.195   9.908  45.907  0.00  0.00    +0.041 A 
ATOM      5  C   UNL     1      21.058   9.732  46.923  0.00  0.00    +0.037 A 
ATOM      6  C   UNL     1      21.615   8.524  47.204  0.00  0.00    +0.020 A 
ATOM      7  C   UNL     1      21.802   7.433  46.189  0.00  0.00    +0.041 C 
ATOM      8  N   UNL     1      21.723   6.096  46.675  0.00  0.00    -0.299 N 
ATOM      9  C   UNL     1      20.722   5.221  46.153  0.00  0.00    +0.128 A 
ATOM     10  N   UNL     1      21.092   3.998  45.732  0.00  0.00    -0.221 NA
ATOM     11  C   UNL     1      20.106   3.237  45.247  0.00  0.00    +0.225 A 
ATOM     12  N   UNL     1      18.811   3.563  45.125  0.00  0.00    -0.221 NA
ATOM     13  C   UNL     1      18.462   4.778  45.577  0.00  0.00    +0.124 A 
ATOM     14  C   UNL     1      19.403   5.646  46.095  0.00  0.00    +0.087 A 
ATOM     15  N   UNL     1      17.124   5.162  45.353  0.00  0.00    -0.329 N 
ATOM     16  C   UNL     1      16.511   5.911  46.471  0.00  0.00    +0.103 C 
ATOM     17  C   UNL     1      16.284   7.371  46.072  0.00  0.00    +0.019 C 
ATOM     18  C   UNL     1      15.579   8.160  47.175  0.00  0.00    +0.002 C 
ATOM     19  C   UNL     1      15.703   9.674  46.972  0.00  0.00    +0.008 C 
ATOM     20  C   UNL     1      16.854  10.322  47.759  0.00  0.00    +0.074 C 
ATOM     21  N   UNL     1      18.878  10.293  46.235  0.00  0.00    -0.343 N 
ATOM     22  C   UNL     1      18.236   9.844  47.417  0.00  0.00    +0.109 A 
ATOM     23  N   UNL     1      18.748   8.772  48.088  0.00  0.00    -0.223 NA
ATOM     24  C   UNL     1      19.409   9.098  49.237  0.00  0.00    +0.223 A 
ATOM     25  N   UNL     1      20.672   8.647  49.553  0.00  0.00    -0.239 NA
ATOM     26  C   UNL     1      21.577   8.247  48.568  0.00  0.00    +0.055 A 
ATOM     27  H   UNL     1      21.369   6.248  47.630  0.00  0.00    +0.154 HD
ATOM     28  H   UNL     1      17.197   5.800  44.563  0.00  0.00    +0.147 HD
ATOM     29  H   UNL     1      18.246  10.301  45.452  0.00  0.00    +0.167 HD
ENDROOT
BRANCH  26  30
ATOM     30  C   UNL     1      22.762   7.525  49.279  0.00  0.00    +0.043 C 
ATOM     31  C   UNL     1      24.165   8.054  48.914  0.00  0.00    +0.038 C 
ATOM     32  C   UNL     1      25.048   8.225  50.144  0.00  0.00    +0.160 C 
ATOM     33  O   UNL     1      25.120   7.034  50.930  0.00  0.00    -0.380 OA
ATOM     34  C   UNL     1      23.843   6.498  51.291  0.00  0.00    +0.160 C 
ATOM     35  C   UNL     1      22.636   7.284  50.794  0.00  0.00    +0.038 C 
ENDBRANCH  26  30
TORSDOF 1
ENDMDL
MODEL 15
REMARK VINA RESULT:      -5.0      7.070     11.193
REMARK  Name = Molecule_03
REMARK  1 active torsions:
REMARK  status: ('A' for Active; 'I' for Inactive)
REMARK    1  A    between atoms: C_26  and  C_27
REMARK                            x       y       z     vdW  Elec       q    Type
REMARK                         _______ _______ _______ _____ _____    ______ ____
ROOT
ATOM      1  C   UNL     1      13.576   6.403  47.056  0.00  0.00    +0.024 C 
ATOM      2  C   UNL     1      12.497   6.281  46.101  0.00  0.00    +0.004 C 
ATOM      3  C   UNL     1      11.878   5.130  45.801  0.00  0.00    +0.026 C 
ATOM      4  C   UNL     1      11.974   3.910  46.571  0.00  0.00    +0.041 A 
ATOM      5  C   UNL     1      11.983   3.938  47.916  0.00  0.00    +0.037 A 
ATOM      6  C   UNL     1      12.997   4.502  48.626  0.00  0.00    +0.020 A 
ATOM      7  C   UNL     1      13.889   5.587  48.092  0.00  0.00    +0.041 C 
ATOM      8  N   UNL     1      15.229   5.598  48.575  0.00  0.00    -0.299 N 
ATOM      9  C   UNL     1      16.306   5.453  47.648  0.00  0.00    +0.128 A 
ATOM     10  N   UNL     1      17.325   6.330  47.702  0.00  0.00    -0.221 NA
ATOM     11  C   UNL     1      18.293   6.140  46.800  0.00  0.00    +0.225 A 
ATOM     12  N   UNL     1      18.348   5.193  45.853  0.00  0.00    -0.221 NA
ATOM     13  C   UNL     1      17.334   4.313  45.838  0.00  0.00    +0.124 A 
ATOM     14  C   UNL     1      16.281   4.419  46.724  0.00  0.00    +0.087 A 
ATOM     15  N   UNL     1      17.338   3.382  44.778  0.00  0.00    -0.329 N 
ATOM     16  C   UNL     1      16.906   2.022  45.163  0.00  0.00    +0.103 C 
ATOM     17  C   UNL     1      15.545   1.700  44.541  0.00  0.00    +0.019 C 
ATOM     18  C   UNL     1      15.099   0.270  44.852  0.00  0.00    +0.002 C 
ATOM     19  C   UNL     1      13.603   0.062  44.594  0.00  0.00    +0.008 C 
ATOM     20  C   UNL     1      12.723   0.212  45.846  0.00  0.00    +0.074 C 
ATOM     21  N   UNL     1      12.021   2.645  45.950  0.00  0.00    -0.343 N 
ATOM     22  C   UNL     1      12.744   1.559  46.508  0.00  0.00    +0.109 A 
ATOM     23  N   UNL     1      13.676   1.805  47.473  0.00  0.00    -0.223 NA
ATOM     24  C   UNL     1      13.279   1.462  48.733  0.00  0.00    +0.223 A 
ATOM     25  N   UNL     1      13.369   2.300  49.823  0.00  0.00    -0.239 NA
ATOM     26  C   UNL     1      13.396   3.689  49.683  0.00  0.00    +0.055 A 
ATOM     27  H   UNL     1      15.275   4.696  49.068  0.00  0.00    +0.154 HD
ATOM     28  H   UNL     1      16.637   3.755  44.141  0.00  0.00    +0.147 HD
ATOM     29  H   UNL     1      12.127   2.682  44.950  0.00  0.00    +0.167 HD
ENDROOT
BRANCH  26  30
ATOM     30  C   UNL     1      13.804   4.296  51.060  0.00  0.00    +0.043 C 
ATOM     31  C   UNL     1      12.626   4.716  51.965  0.00  0.00    +0.038 C 
ATOM     32  C   UNL     1      12.826   4.270  53.407  0.00  0.00    +0.160 C 
ATOM     33  O   UNL     1      14.081   4.700  53.939  0.00  0.00    -0.380 OA
ATOM     34  C   UNL     1      15.207   4.340  53.133  0.00  0.00    +0.160 C 
ATOM     35  C   UNL     1      14.886   3.557  51.865  0.00  0.00    +0.038 C 
ENDBRANCH  26  30
TORSDOF 1
ENDMDL
MODEL 16
REMARK VINA RESULT:      -4.9      3.351      6.678
REMARK  Name = Molecule_03
REMARK  1 active torsions:
REMARK  status: ('A' for Active; 'I' for Inactive)
REMARK    1  A    between atoms: C_26  and  C_27
REMARK                            x       y       z     vdW  Elec       q    Type
REMARK                         _______ _______ _______ _____ _____    ______ ____
ROOT
ATOM      1  C   UNL     1      22.542   5.531  47.108  0.00  0.00    +0.024 C 
ATOM      2  C   UNL     1      21.948   4.671  46.109  0.00  0.00    +0.004 C 
ATOM      3  C   UNL     1      21.497   5.092  44.918  0.00  0.00    +0.026 C 
ATOM      4  C   UNL     1      21.789   6.379  44.327  0.00  0.00    +0.041 A 
ATOM      5  C   UNL     1      23.015   6.926  44.428  0.00  0.00    +0.037 A 
ATOM      6  C   UNL     1      23.541   7.319  45.618  0.00  0.00    +0.020 A 
ATOM      7  C   UNL     1      23.138   6.738  46.944  0.00  0.00    +0.041 C 
ATOM      8  N   UNL     1      23.193   7.618  48.063  0.00  0.00    -0.299 N 
ATOM      9  C   UNL     1      21.998   7.889  48.798  0.00  0.00    +0.128 A 
ATOM     10  N   UNL     1      22.026   7.775  50.137  0.00  0.00    -0.221 NA
ATOM     11  C   UNL     1      20.872   8.035  50.759  0.00  0.00    +0.225 A 
ATOM     12  N   UNL     1      19.705   8.378  50.196  0.00  0.00    -0.221 NA
ATOM     13  C   UNL     1      19.709   8.512  48.860  0.00  0.00    +0.124 A 
ATOM     14  C   UNL     1      20.848   8.265  48.120  0.00  0.00    +0.087 A 
ATOM     15  N   UNL     1      18.459   8.769  48.259  0.00  0.00    -0.329 N 
ATOM     16  C   UNL     1      18.511   9.730  47.136  0.00  0.00    +0.103 C 
ATOM     17  C   UNL     1      18.238   9.014  45.811  0.00  0.00    +0.019 C 
ATOM     18  C   UNL     1      18.205   9.989  44.633  0.00  0.00    +0.002 C 
ATOM     19  C   UNL     1      18.337   9.271  43.285  0.00  0.00    +0.008 C 
ATOM     20  C   UNL     1      19.771   9.233  42.731  0.00  0.00    +0.074 C 
ATOM     21  N   UNL     1      20.821   7.092  43.591  0.00  0.00    -0.343 N 
ATOM     22  C   UNL     1      20.783   8.510  43.573  0.00  0.00    +0.109 A 
ATOM     23  N   UNL     1      21.466   9.207  44.527  0.00  0.00    -0.223 NA
ATOM     24  C   UNL     1      22.615   9.788  44.077  0.00  0.00    +0.223 A 
ATOM     25  N   UNL     1      23.837   9.662  44.702  0.00  0.00    -0.239 NA
ATOM     26  C   UNL     1      24.133   8.576  45.527  0.00  0.00    +0.055 A 
ATOM     27  H   UNL     1      23.347   8.524  47.601  0.00  0.00    +0.154 HD
ATOM     28  H   UNL     1      18.199   7.864  47.873  0.00  0.00    +0.147 HD
ATOM     29  H   UNL     1      19.896   6.700  43.641  0.00  0.00    +0.167 HD
ENDROOT
BRANCH  26  30
ATOM     30  C   UNL     1      25.451   8.905  46.290  0.00  0.00    +0.043 C 
ATOM     31  C   UNL     1      26.747   8.712  45.473  0.00  0.00    +0.038 C 
ATOM     32  C   UNL     1      27.714   9.875  45.653  0.00  0.00    +0.160 C 
ATOM     33  O   UNL     1      27.992  10.142  47.029  0.00  0.00    -0.380 OA
ATOM     34  C   UNL     1      26.823  10.324  47.833  0.00  0.00    +0.160 C 
ATOM     35  C   UNL     1      25.493  10.216  47.095  0.00  0.00    +0.038 C 
ENDBRANCH  26  30
TORSDOF 1
ENDMDL
MODEL 17
REMARK VINA RESULT:      -4.8      2.399      5.346
REMARK  Name = Molecule_03
REMARK  1 active torsions:
REMARK  status: ('A' for Active; 'I' for Inactive)
REMARK    1  A    between atoms: C_26  and  C_27
REMARK                            x       y       z     vdW  Elec       q    Type
REMARK                         _______ _______ _______ _____ _____    ______ ____
ROOT
ATOM      1  C   UNL     1      21.400   9.393  45.192  0.00  0.00    +0.024 C 
ATOM      2  C   UNL     1      22.782   9.818  45.232  0.00  0.00    +0.004 C 
ATOM      3  C   UNL     1      23.783   9.091  45.751  0.00  0.00    +0.026 C 
ATOM      4  C   UNL     1      23.706   7.684  46.076  0.00  0.00    +0.041 A 
ATOM      5  C   UNL     1      23.055   6.823  45.274  0.00  0.00    +0.037 A 
ATOM      6  C   UNL     1      21.711   6.882  45.080  0.00  0.00    +0.020 A 
ATOM      7  C   UNL     1      20.897   8.135  45.240  0.00  0.00    +0.041 C 
ATOM      8  N   UNL     1      19.555   7.965  45.688  0.00  0.00    -0.299 N 
ATOM      9  C   UNL     1      19.144   8.578  46.911  0.00  0.00    +0.128 A 
ATOM     10  N   UNL     1      18.011   9.303  46.919  0.00  0.00    -0.221 NA
ATOM     11  C   UNL     1      17.692   9.854  48.094  0.00  0.00    +0.225 A 
ATOM     12  N   UNL     1      18.378   9.775  49.243  0.00  0.00    -0.221 NA
ATOM     13  C   UNL     1      19.491   9.023  49.217  0.00  0.00    +0.124 A 
ATOM     14  C   UNL     1      19.912   8.410  48.054  0.00  0.00    +0.087 A 
ATOM     15  N   UNL     1      20.268   9.025  50.394  0.00  0.00    -0.329 N 
ATOM     16  C   UNL     1      20.853   7.711  50.737  0.00  0.00    +0.103 C 
ATOM     17  C   UNL     1      22.371   7.739  50.545  0.00  0.00    +0.019 C 
ATOM     18  C   UNL     1      23.023   6.421  50.965  0.00  0.00    +0.002 C 
ATOM     19  C   UNL     1      24.448   6.280  50.417  0.00  0.00    +0.008 C 
ATOM     20  C   UNL     1      24.541   5.478  49.108  0.00  0.00    +0.074 C 
ATOM     21  N   UNL     1      24.341   7.153  47.217  0.00  0.00    -0.343 N 
ATOM     22  C   UNL     1      23.805   6.050  47.932  0.00  0.00    +0.109 A 
ATOM     23  N   UNL     1      22.503   5.697  47.732  0.00  0.00    -0.223 NA
ATOM     24  C   UNL     1      22.340   4.571  46.977  0.00  0.00    +0.223 A 
ATOM     25  N   UNL     1      21.498   4.490  45.888  0.00  0.00    -0.239 NA
ATOM     26  C   UNL     1      21.125   5.621  45.162  0.00  0.00    +0.055 A 
ATOM     27  H   UNL     1      19.556   6.972  45.959  0.00  0.00    +0.154 HD
ATOM     28  H   UNL     1      21.037   9.649  50.160  0.00  0.00    +0.147 HD
ATOM     29  H   UNL     1      24.714   7.849  47.841  0.00  0.00    +0.167 HD
ENDROOT
BRANCH  26  30
ATOM     30  C   UNL     1      19.954   5.212  44.217  0.00  0.00    +0.043 C 
ATOM     31  C   UNL     1      20.371   4.396  42.974  0.00  0.00    +0.038 C 
ATOM     32  C   UNL     1      19.445   3.211  42.733  0.00  0.00    +0.160 C 
ATOM     33  O   UNL     1      18.071   3.598  42.675  0.00  0.00    -0.380 OA
ATOM     34  C   UNL     1      17.635   4.363  43.803  0.00  0.00    +0.160 C 
ATOM     35  C   UNL     1      18.692   4.623  44.870  0.00  0.00    +0.038 C 
ENDBRANCH  26  30
TORSDOF 1
ENDMDL
MODEL 18
REMARK VINA RESULT:      -4.7      4.281      7.116
REMARK  Name = Molecule_03
REMARK  1 active torsions:
REMARK  status: ('A' for Active; 'I' for Inactive)
REMARK    1  A    between atoms: C_26  and  C_27
REMARK                            x       y       z     vdW  Elec       q    Type
REMARK                         _______ _______ _______ _____ _____    ______ ____
ROOT
ATOM      1  C   UNL     1      17.755   9.514  45.530  0.00  0.00    +0.024 C 
ATOM      2  C   UNL     1      18.254   9.452  44.175  0.00  0.00    +0.004 C 
ATOM      3  C   UNL     1      18.601   8.319  43.546  0.00  0.00    +0.026 C 
ATOM      4  C   UNL     1      18.264   6.985  43.992  0.00  0.00    +0.041 A 
ATOM      5  C   UNL     1      17.055   6.715  44.516  0.00  0.00    +0.037 A 
ATOM      6  C   UNL     1      16.637   7.248  45.695  0.00  0.00    +0.020 A 
ATOM      7  C   UNL     1      17.152   8.542  46.258  0.00  0.00    +0.041 C 
ATOM      8  N   UNL     1      17.200   8.639  47.679  0.00  0.00    -0.299 N 
ATOM      9  C   UNL     1      18.455   8.862  48.322  0.00  0.00    +0.128 A 
ATOM     10  N   UNL     1      18.544   9.844  49.238  0.00  0.00    -0.221 NA
ATOM     11  C   UNL     1      19.750  10.001  49.793  0.00  0.00    +0.225 A 
ATOM     12  N   UNL     1      20.865   9.307  49.527  0.00  0.00    -0.221 NA
ATOM     13  C   UNL     1      20.744   8.314  48.630  0.00  0.00    +0.124 A 
ATOM     14  C   UNL     1      19.544   8.067  47.995  0.00  0.00    +0.087 A 
ATOM     15  N   UNL     1      21.938   7.653  48.273  0.00  0.00    -0.329 N 
ATOM     16  C   UNL     1      21.791   6.194  48.090  0.00  0.00    +0.103 C 
ATOM     17  C   UNL     1      21.944   5.824  46.613  0.00  0.00    +0.019 C 
ATOM     18  C   UNL     1      21.878   4.312  46.393  0.00  0.00    +0.002 C 
ATOM     19  C   UNL     1      21.625   3.952  44.925  0.00  0.00    +0.008 C 
ATOM     20  C   UNL     1      20.148   3.690  44.588  0.00  0.00    +0.074 C 
ATOM     21  N   UNL     1      19.167   5.911  43.860  0.00  0.00    -0.343 N 
ATOM     22  C   UNL     1      19.210   4.844  44.795  0.00  0.00    +0.109 A 
ATOM     23  N   UNL     1      18.617   5.003  46.013  0.00  0.00    -0.223 NA
ATOM     24  C   UNL     1      17.435   4.334  46.149  0.00  0.00    +0.223 A 
ATOM     25  N   UNL     1      16.272   4.913  46.609  0.00  0.00    -0.239 NA
ATOM     26  C   UNL     1      16.045   6.286  46.511  0.00  0.00    +0.055 A 
ATOM     27  H   UNL     1      17.009   7.666  47.956  0.00  0.00    +0.154 HD
ATOM     28  H   UNL     1      22.158   8.053  47.363  0.00  0.00    +0.147 HD
ATOM     29  H   UNL     1      20.091   6.184  43.571  0.00  0.00    +0.167 HD
ENDROOT
BRANCH  26  30
ATOM     30  C   UNL     1      14.800   6.624  47.386  0.00  0.00    +0.043 C 
ATOM     31  C   UNL     1      13.724   7.485  46.689  0.00  0.00    +0.038 C 
ATOM     32  C   UNL     1      12.319   6.958  46.945  0.00  0.00    +0.160 C 
ATOM     33  O   UNL     1      12.044   6.796  48.338  0.00  0.00    -0.380 OA
ATOM     34  C   UNL     1      13.017   6.009  49.033  0.00  0.00    +0.160 C 
ATOM     35  C   UNL     1      14.161   5.472  48.180  0.00  0.00    +0.038 C 
ENDBRANCH  26  30
TORSDOF 1
ENDMDL
