REMARK  Name = Molecule_17
REMARK  2 active torsions:
REMARK  status: ('A' for Active; 'I' for Inactive)
REMARK    1  A    between atoms: C_4  and  N_5
REMARK    2  A    between atoms: C_10  and  C_11
REMARK                            x       y       z     vdW  Elec       q    Type
REMARK                         _______ _______ _______ _____ _____    ______ ____
ROOT
ATOM      1  N   UNL     1      -1.989  -1.456   0.874  0.00  0.00    -0.284 N 
ATOM      2  C   UNL     1      -0.639  -1.743   0.695  0.00  0.00    +0.220 A 
ATOM      3  N   UNL     1      -0.292  -3.012   0.959  0.00  0.00    -0.223 NA
ATOM      4  C   UNL     1       1.004  -3.336   0.812  0.00  0.00    +0.116 A 
ATOM      5  C   UNL     1       1.968  -2.446   0.411  0.00  0.00    +0.048 A 
ATOM      6  C   UNL     1       1.537  -1.161   0.159  0.00  0.00    +0.076 A 
ATOM      7  N   UNL     1       0.240  -0.810   0.306  0.00  0.00    -0.214 NA
ATOM      8  H   UNL     1      -2.462  -2.296   1.174  0.00  0.00    +0.155 HD
ENDROOT
BRANCH   1  12
ATOM      9  C   UNL     1      -4.487   1.891   0.251  0.00  0.00    +0.000 A 
ATOM     10  C   UNL     1      -3.154   1.951  -0.142  0.00  0.00    +0.002 A 
ATOM     11  C   UNL     1      -2.312   0.849   0.052  0.00  0.00    +0.023 A 
ATOM     12  C   UNL     1      -2.785  -0.332   0.632  0.00  0.00    +0.034 A 
ATOM     13  C   UNL     1      -4.132  -0.367   1.029  0.00  0.00    +0.023 A 
ATOM     14  C   UNL     1      -4.978   0.731   0.839  0.00  0.00    +0.002 A 
ENDBRANCH   1  12
BRANCH   6  15
ATOM     15  C   UNL     1       2.446  -0.078  -0.272  0.00  0.00    +0.001 A 
ATOM     16  C   UNL     1       3.565  -0.320  -1.090  0.00  0.00    +0.010 A 
ATOM     17  C   UNL     1       4.418   0.718  -1.483  0.00  0.00    +0.001 A 
ATOM     18  C   UNL     1       4.167   2.023  -1.068  0.00  0.00    +0.000 A 
ATOM     19  C   UNL     1       3.063   2.292  -0.266  0.00  0.00    +0.001 A 
ATOM     20  C   UNL     1       2.213   1.253   0.125  0.00  0.00    +0.010 A 
ENDBRANCH   6  15
TORSDOF 2
