REMARK  Name = Molecule_02
REMARK  7 active torsions:
REMARK  status: ('A' for Active; 'I' for Inactive)
REMARK    1  A    between atoms: C_3  and  C_22
REMARK    2  A    between atoms: C_8  and  N_9
REMARK    3  A    between atoms: N_9  and  C_10
REMARK    4  A    between atoms: C_14  and  N_15
REMARK    5  A    between atoms: N_15  and  C_16
REMARK    6  A    between atoms: C_16  and  C_17
REMARK    7  A    between atoms: C_16  and  C_18
REMARK                            x       y       z     vdW  Elec       q    Type
REMARK                         _______ _______ _______ _____ _____    ______ ____
ROOT
ATOM      1  N   UNL     1       3.523  -1.314  -0.845  0.00  0.00    -0.252 NA
ATOM      2  C   UNL     1       3.326   0.016  -0.656  0.00  0.00    +0.112 A 
ATOM      3  C   UNL     1       4.384   0.903  -0.470  0.00  0.00    +0.073 A 
ATOM      4  N   UNL     1       4.207   2.242  -0.298  0.00  0.00    -0.238 NA
ATOM      5  C   UNL     1       2.949   2.688  -0.297  0.00  0.00    +0.222 A 
ATOM      6  N   UNL     1       1.856   1.938  -0.456  0.00  0.00    -0.232 NA
ATOM      7  C   UNL     1       2.058   0.614  -0.634  0.00  0.00    +0.114 A 
ATOM      8  C   UNL     1       0.957  -0.240  -0.802  0.00  0.00    +0.061 A 
ATOM      9  C   UNL     1       1.151  -1.607  -1.017  0.00  0.00    +0.045 A 
ATOM     10  C   UNL     1       2.440  -2.092  -1.026  0.00  0.00    +0.113 A 
ENDROOT
BRANCH   3  11
ATOM     11  C   UNL     1       5.898   0.463  -0.464  0.00  0.00    +0.040 C 
ATOM     12  C   UNL     1       6.953   1.356   0.258  0.00  0.00    +0.010 C 
ATOM     13  C   UNL     1       7.700   0.060   0.626  0.00  0.00    +0.001 C 
ATOM     14  C   UNL     1       6.344  -0.663   0.517  0.00  0.00    +0.010 C 
ENDBRANCH   3  11
BRANCH   8  15
ATOM     15  N   UNL     1      -0.353   0.323  -0.816  0.00  0.00    -0.313 N 
ATOM     16  H   UNL     1      -0.283   1.336  -0.677  0.00  0.00    +0.152 HD
BRANCH  15  17
ATOM     17  C   UNL     1      -1.552  -0.177  -0.264  0.00  0.00    +0.033 A 
ATOM     18  C   UNL     1      -1.593  -1.180   0.703  0.00  0.00    +0.023 A 
ATOM     19  C   UNL     1      -2.817  -1.628   1.195  0.00  0.00    +0.004 A 
ATOM     20  C   UNL     1      -4.014  -1.071   0.732  0.00  0.00    +0.023 A 
ATOM     21  C   UNL     1      -4.019  -0.038  -0.204  0.00  0.00    +0.029 A 
ATOM     22  C   UNL     1      -2.768   0.373  -0.704  0.00  0.00    +0.046 A 
BRANCH  21  23
ATOM     23  N   UNL     1      -5.157   0.529  -0.760  0.00  0.00    -0.341 N 
ATOM     24  H   UNL     1      -4.971   1.449  -1.152  0.00  0.00    +0.146 HD
BRANCH  23  25
ATOM     25  C   UNL     1      -6.546   0.387  -0.323  0.00  0.00    +0.064 C 
ATOM     26  C   UNL     1      -6.764   0.834   1.118  0.00  0.00    +0.027 C 
ATOM     27  C   UNL     1      -7.118  -0.993  -0.627  0.00  0.00    +0.027 C 
ENDBRANCH  23  25
ENDBRANCH  21  23
ENDBRANCH  15  17
ENDBRANCH   8  15
TORSDOF 5
