REMARK  Name = Molecule_03
REMARK  1 active torsions:
REMARK  status: ('A' for Active; 'I' for Inactive)
REMARK    1  A    between atoms: C_26  and  C_27
REMARK                            x       y       z     vdW  Elec       q    Type
REMARK                         _______ _______ _______ _____ _____    ______ ____
ROOT
ATOM      1  C   UNL     1      -0.457  -1.191   2.727  0.00  0.00    +0.024 C 
ATOM      2  C   UNL     1       0.229  -0.363   3.694  0.00  0.00    +0.004 C 
ATOM      3  C   UNL     1       0.742   0.847   3.426  0.00  0.00    +0.026 C 
ATOM      4  C   UNL     1       0.445   1.633   2.249  0.00  0.00    +0.041 A 
ATOM      5  C   UNL     1      -0.802   1.685   1.747  0.00  0.00    +0.037 A 
ATOM      6  C   UNL     1      -1.418   0.597   1.213  0.00  0.00    +0.020 A 
ATOM      7  C   UNL     1      -1.082  -0.820   1.583  0.00  0.00    +0.041 C 
ATOM      8  N   UNL     1      -1.240  -1.796   0.557  0.00  0.00    -0.299 N 
ATOM      9  C   UNL     1      -0.106  -2.554   0.133  0.00  0.00    +0.128 A 
ATOM     10  N   UNL     1      -0.217  -3.892   0.058  0.00  0.00    -0.221 NA
ATOM     11  C   UNL     1       0.885  -4.537  -0.337  0.00  0.00    +0.225 A 
ATOM     12  N   UNL     1       2.074  -4.002  -0.647  0.00  0.00    -0.221 NA
ATOM     13  C   UNL     1       2.152  -2.662  -0.591  0.00  0.00    +0.124 A 
ATOM     14  C   UNL     1       1.073  -1.899  -0.193  0.00  0.00    +0.087 A 
ATOM     15  N   UNL     1       3.429  -2.106  -0.814  0.00  0.00    -0.329 N 
ATOM     16  C   UNL     1       3.417  -0.856  -1.603  0.00  0.00    +0.103 C 
ATOM     17  C   UNL     1       3.800   0.334  -0.720  0.00  0.00    +0.019 C 
ATOM     18  C   UNL     1       3.876   1.636  -1.519  0.00  0.00    +0.002 C 
ATOM     19  C   UNL     1       3.857   2.872  -0.613  0.00  0.00    +0.008 C 
ATOM     20  C   UNL     1       2.464   3.499  -0.435  0.00  0.00    +0.074 C 
ATOM     21  N   UNL     1       1.434   2.405   1.606  0.00  0.00    -0.343 N 
ATOM     22  C   UNL     1       1.425   2.624   0.204  0.00  0.00    +0.109 A 
ATOM     23  N   UNL     1       0.658   1.822  -0.590  0.00  0.00    -0.223 NA
ATOM     24  C   UNL     1      -0.479   2.419  -1.052  0.00  0.00    +0.223 A 
ATOM     25  N   UNL     1      -1.734   1.856  -0.963  0.00  0.00    -0.239 NA
ATOM     26  C   UNL     1      -2.045   0.903   0.008  0.00  0.00    +0.055 A 
ATOM     27  H   UNL     1      -1.395  -1.200  -0.268  0.00  0.00    +0.154 HD
ATOM     28  H   UNL     1       3.744  -1.870   0.125  0.00  0.00    +0.147 HD
ATOM     29  H   UNL     1       2.367   2.244   1.947  0.00  0.00    +0.167 HD
ENDROOT
BRANCH  26  30
ATOM     30  C   UNL     1      -3.421   0.275  -0.369  0.00  0.00    +0.043 C 
ATOM     31  C   UNL     1      -3.416  -0.597  -1.643  0.00  0.00    +0.038 C 
ATOM     32  C   UNL     1      -4.181  -1.899  -1.446  0.00  0.00    +0.160 C 
ATOM     33  O   UNL     1      -5.507  -1.682  -0.960  0.00  0.00    -0.380 OA
ATOM     34  C   UNL     1      -5.568  -0.873   0.219  0.00  0.00    +0.160 C 
ATOM     35  C   UNL     1      -4.225  -0.395   0.759  0.00  0.00    +0.038 C 
ENDBRANCH  26  30
TORSDOF 1
